version 3
run General-0-20260101-18:56:30-12011
attr configname General
attr datetime 20260101-18:56:30
attr datetimef 20260101-185630
attr experiment General
attr inifile omnetpp.ini
attr iterationvars ""
attr iterationvarsd ""
attr iterationvarsf ""
attr measurement ""
attr network mstclustering.MstClusteringNetwork
attr processid 12011
attr repetition 0
attr replication #0
attr resultdir results
attr runnumber 0
attr seedset 0
config image-path ../inet4.5/images
config description "MST-based Clustering - Base Configuration"
config network mstclustering.MstClusteringNetwork
config sim-time-limit 300s
config warmup-period 10s
config num-rngs 3
config **.mobility.rng-0 1
config **.wlan[*].mac.rng-0 2
config record-eventlog false
config **.vector-recording true
config **.scalar-recording true
config *.numNodes 20
config *.playgroundSizeX 600m
config *.playgroundSizeY 600m
config *.configurator.config "xml(\"<config><interface hosts='**' address='10.x.x.x' netmask='255.x.x.x'/><autoroute metric='hopCount'/></config>\")"
config *.node[*].ipv4.arp.typename GlobalArp
config *.node[*].mstClustering.helloInterval 1s
config *.node[*].mstClustering.mstUpdateInterval 2s
config *.node[*].mstClustering.clusterTimeout 5s
config *.node[*].mstClustering.enableDynamicMst true
config *.node[*].mstClustering.maxClusters 5
config *.node[*].mstClustering.maxClusterSize 10
config *.node[*].mstClustering.clusterThreshold 0.5
config *.node[*].mstClustering.edgeWeightAlpha 0.5
config *.node[*].mstClustering.edgeWeightBeta 0.3
config *.node[*].mstClustering.edgeWeightGamma 0.2
config *.node[*].mstClustering.communicationRange 300m
config *.node[*].mobility.typename MassMobility
config *.node[*].mobility.constraintAreaMinX 0m
config *.node[*].mobility.constraintAreaMinY 0m
config *.node[*].mobility.constraintAreaMinZ 0m
config *.node[*].mobility.constraintAreaMaxX 600m
config *.node[*].mobility.constraintAreaMaxY 600m
config *.node[*].mobility.constraintAreaMaxZ 0m
config *.node[*].mobility.initFromDisplayString false
config *.node[*].mobility.changeInterval "truncnormal(2s, 0.5s)"
config *.node[*].mobility.angleDelta "normal(0deg, 30deg)"
config *.node[*].mobility.speed "truncnormal(10mps, 5mps)"
config *.radioMedium.typename UnitDiskRadioMedium
config *.node[*].wlan[*].typename AckingWirelessInterface
config *.node[*].wlan[*].radio.typename UnitDiskRadio
config *.node[*].wlan[*].radio.transmitter.communicationRange 300m
config *.node[*].wlan[*].radio.transmitter.interferenceRange 500m
config *.node[*].wlan[*].radio.transmitter.detectionRange 600m
config *.node[*].wlan[*].radio.receiver.ignoreInterference false
config *.node[*].wlan[*].mac.headerLength 23B
config *.node[*].**.bitrate 1Mbps
config *.node[*].hasStatus true
config *.node[*].energyStorage.typename SimpleEpEnergyStorage
config *.node[*].energyStorage.nominalCapacity 10000J
config *.node[*].energyStorage.initialCapacity "uniform(5000J, 10000J)"
config *.node[*].wlan[*].radio.energyConsumer.typename StateBasedEpEnergyConsumer
config *.node[*].wlan[*].radio.energyConsumer.offPowerConsumption 0mW
config *.node[*].wlan[*].radio.energyConsumer.sleepPowerConsumption 1mW
config *.node[*].wlan[*].radio.energyConsumer.switchingPowerConsumption 5mW
config *.node[*].wlan[*].radio.energyConsumer.receiverIdlePowerConsumption 2mW
config *.node[*].wlan[*].radio.energyConsumer.receiverBusyPowerConsumption 5mW
config *.node[*].wlan[*].radio.energyConsumer.receiverReceivingPowerConsumption 10mW
config *.node[*].wlan[*].radio.energyConsumer.transmitterIdlePowerConsumption 2mW
config *.node[*].wlan[*].radio.energyConsumer.transmitterTransmittingPowerConsumption 100mW
config *.hasVisualizer true
config *.visualizer.*.mobilityVisualizer.displayMobility true
config *.visualizer.*.mobilityVisualizer.displayPositions true
config *.visualizer.*.mobilityVisualizer.displayOrientations false
config *.visualizer.*.mobilityVisualizer.displayVelocities true
config *.visualizer.*.mobilityVisualizer.displayMovementTrails true
config *.visualizer.*.mediumVisualizer.displaySignals false
config *.visualizer.*.mediumVisualizer.displayTransmissions false
config *.visualizer.*.mediumVisualizer.displayReceptions false
config *.visualizer.*.physicalLinkVisualizer.displayLinks true
config *.visualizer.*.physicalLinkVisualizer.lineColor "\"dark\""
config *.visualizer.*.dataLinkVisualizer.displayLinks true
config *.visualizer.*.networkRouteVisualizer.displayRoutes true

par MstClusteringNetwork.visualizer.sceneVisualizer typename "\"inet.visualizer.canvas.scene.SceneCanvasVisualizer\""
par MstClusteringNetwork.visualizer.sceneVisualizer visualizationTargetModule "\"^.^\""
par MstClusteringNetwork.visualizer.sceneVisualizer visualizationSubjectModule "\"^.^\""
par MstClusteringNetwork.visualizer.sceneVisualizer tags "\"\""
par MstClusteringNetwork.visualizer.sceneVisualizer physicalEnvironmentModule "\"physicalEnvironment\""
par MstClusteringNetwork.visualizer.sceneVisualizer networkNodeVisualizerModule "\"^.networkNodeVisualizer\""
par MstClusteringNetwork.visualizer.sceneVisualizer axisLength "nan m"
attr mutable ""
attr unit m
par MstClusteringNetwork.visualizer.sceneVisualizer animationSpeed 0
par MstClusteringNetwork.visualizer.sceneVisualizer sceneMinX "nan m"
attr unit m
par MstClusteringNetwork.visualizer.sceneVisualizer sceneMinY "nan m"
attr unit m
par MstClusteringNetwork.visualizer.sceneVisualizer sceneMinZ "nan m"
attr unit m
par MstClusteringNetwork.visualizer.sceneVisualizer sceneMaxX "nan m"
attr unit m
par MstClusteringNetwork.visualizer.sceneVisualizer sceneMaxY "nan m"
attr unit m
par MstClusteringNetwork.visualizer.sceneVisualizer sceneMaxZ "nan m"
attr unit m
par MstClusteringNetwork.visualizer.sceneVisualizer zIndex 0
par MstClusteringNetwork.visualizer.sceneVisualizer viewAngle "\"x right y down z out\""
attr mutable ""
par MstClusteringNetwork.visualizer.sceneVisualizer viewScale "\"1 1\""
attr mutable ""
par MstClusteringNetwork.visualizer.sceneVisualizer viewTranslation "\"0 0\""
attr mutable ""
par MstClusteringNetwork.visualizer.sceneVisualizer descriptionFigure "\"\""
par MstClusteringNetwork.visualizer.physicalEnvironmentVisualizer typename "\"inet.visualizer.canvas.environment.PhysicalEnvironmentCanvasVisualizer\""
par MstClusteringNetwork.visualizer.physicalEnvironmentVisualizer visualizationTargetModule "\"^.^\""
par MstClusteringNetwork.visualizer.physicalEnvironmentVisualizer visualizationSubjectModule "\"^.^\""
par MstClusteringNetwork.visualizer.physicalEnvironmentVisualizer tags "\"\""
par MstClusteringNetwork.visualizer.physicalEnvironmentVisualizer physicalEnvironmentModule "\"physicalEnvironment\""
par MstClusteringNetwork.visualizer.physicalEnvironmentVisualizer displayObjects true
par MstClusteringNetwork.visualizer.physicalEnvironmentVisualizer zIndex 0
par MstClusteringNetwork.visualizer.networkNodeVisualizer typename "\"inet.visualizer.canvas.scene.NetworkNodeCanvasVisualizer\""
par MstClusteringNetwork.visualizer.networkNodeVisualizer visualizationTargetModule "\"^.^\""
par MstClusteringNetwork.visualizer.networkNodeVisualizer visualizationSubjectModule "\"^.^\""
par MstClusteringNetwork.visualizer.networkNodeVisualizer tags "\"\""
par MstClusteringNetwork.visualizer.networkNodeVisualizer nodeFilter "\"*\""
attr mutable ""
par MstClusteringNetwork.visualizer.networkNodeVisualizer annotationSpacing 4
par MstClusteringNetwork.visualizer.networkNodeVisualizer placementPenalty 10
par MstClusteringNetwork.visualizer.networkNodeVisualizer zIndex 0
par MstClusteringNetwork.visualizer.networkConnectionVisualizer typename "\"inet.visualizer.canvas.scene.NetworkConnectionCanvasVisualizer\""
par MstClusteringNetwork.visualizer.networkConnectionVisualizer visualizationTargetModule "\"^.^\""
par MstClusteringNetwork.visualizer.networkConnectionVisualizer visualizationSubjectModule "\"^.^\""
par MstClusteringNetwork.visualizer.networkConnectionVisualizer tags "\"\""
par MstClusteringNetwork.visualizer.networkConnectionVisualizer displayNetworkConnections true
par MstClusteringNetwork.visualizer.networkConnectionVisualizer nodeFilter "\"\""
attr mutable ""
par MstClusteringNetwork.visualizer.networkConnectionVisualizer lineColor "\"black\""
par MstClusteringNetwork.visualizer.networkConnectionVisualizer lineStyle "\"solid\""
par MstClusteringNetwork.visualizer.networkConnectionVisualizer lineWidth 1
par MstClusteringNetwork.visualizer.networkConnectionVisualizer zIndex 0
par MstClusteringNetwork.visualizer.mobilityVisualizer typename "\"inet.visualizer.canvas.mobility.MobilityCanvasVisualizer\""
par MstClusteringNetwork.visualizer.mobilityVisualizer visualizationTargetModule "\"^.^\""
par MstClusteringNetwork.visualizer.mobilityVisualizer visualizationSubjectModule "\"^.^\""
par MstClusteringNetwork.visualizer.mobilityVisualizer tags "\"\""
par MstClusteringNetwork.visualizer.mobilityVisualizer networkNodeVisualizerModule "\"^.networkNodeVisualizer\""
par MstClusteringNetwork.visualizer.mobilityVisualizer displayMobility true
par MstClusteringNetwork.visualizer.mobilityVisualizer animationSpeed 0
par MstClusteringNetwork.visualizer.mobilityVisualizer moduleFilter "\"**.mobility\""
attr mutable ""
par MstClusteringNetwork.visualizer.mobilityVisualizer displayPositions false
par MstClusteringNetwork.visualizer.mobilityVisualizer positionCircleRadius 4
par MstClusteringNetwork.visualizer.mobilityVisualizer positionCircleLineWidth 1
par MstClusteringNetwork.visualizer.mobilityVisualizer positionCircleLineColor "\"dark\""
par MstClusteringNetwork.visualizer.mobilityVisualizer positionCircleFillColor "\"dark\""
par MstClusteringNetwork.visualizer.mobilityVisualizer displayOrientations false
par MstClusteringNetwork.visualizer.mobilityVisualizer orientationPieRadius 32
par MstClusteringNetwork.visualizer.mobilityVisualizer orientationPieSize 0.2
par MstClusteringNetwork.visualizer.mobilityVisualizer orientationPieOpacity 0.25
par MstClusteringNetwork.visualizer.mobilityVisualizer orientationLineColor "\"black\""
par MstClusteringNetwork.visualizer.mobilityVisualizer orientationLineStyle "\"solid\""
par MstClusteringNetwork.visualizer.mobilityVisualizer orientationLineWidth 1
par MstClusteringNetwork.visualizer.mobilityVisualizer orientationFillColor "\"blue\""
par MstClusteringNetwork.visualizer.mobilityVisualizer displayVelocities false
par MstClusteringNetwork.visualizer.mobilityVisualizer velocityArrowScale 1
par MstClusteringNetwork.visualizer.mobilityVisualizer velocityLineColor "\"black\""
par MstClusteringNetwork.visualizer.mobilityVisualizer velocityLineStyle "\"solid\""
par MstClusteringNetwork.visualizer.mobilityVisualizer velocityLineWidth 1
par MstClusteringNetwork.visualizer.mobilityVisualizer displayMovementTrails false
par MstClusteringNetwork.visualizer.mobilityVisualizer movementTrailLineColor "\"dark\""
par MstClusteringNetwork.visualizer.mobilityVisualizer movementTrailLineStyle "\"solid\""
par MstClusteringNetwork.visualizer.mobilityVisualizer movementTrailLineWidth 1
par MstClusteringNetwork.visualizer.mobilityVisualizer trailLength 100
par MstClusteringNetwork.visualizer.mobilityVisualizer zIndex 0
par MstClusteringNetwork.visualizer.statisticVisualizer typename "\"inet.visualizer.canvas.common.StatisticCanvasVisualizer\""
par MstClusteringNetwork.visualizer.statisticVisualizer visualizationTargetModule "\"^.^\""
par MstClusteringNetwork.visualizer.statisticVisualizer visualizationSubjectModule "\"^.^\""
par MstClusteringNetwork.visualizer.statisticVisualizer tags "\"\""
par MstClusteringNetwork.visualizer.statisticVisualizer networkNodeVisualizerModule "\"^.networkNodeVisualizer\""
par MstClusteringNetwork.visualizer.statisticVisualizer displayStatistics true
par MstClusteringNetwork.visualizer.statisticVisualizer signalName "\"\""
par MstClusteringNetwork.visualizer.statisticVisualizer statisticName "\"\""
par MstClusteringNetwork.visualizer.statisticVisualizer statisticUnit "\"\""
par MstClusteringNetwork.visualizer.statisticVisualizer statisticExpression "\"\""
par MstClusteringNetwork.visualizer.statisticVisualizer sourceFilter "\"**\""
attr mutable ""
par MstClusteringNetwork.visualizer.statisticVisualizer format "\"%n: %v %u\""
attr mutable ""
par MstClusteringNetwork.visualizer.statisticVisualizer unit "\"\""
par MstClusteringNetwork.visualizer.statisticVisualizer font "\"<default>\""
par MstClusteringNetwork.visualizer.statisticVisualizer textColor "\"black\""
par MstClusteringNetwork.visualizer.statisticVisualizer backgroundColor "\"white\""
par MstClusteringNetwork.visualizer.statisticVisualizer opacity 1
par MstClusteringNetwork.visualizer.statisticVisualizer placementHint "\"top\""
par MstClusteringNetwork.visualizer.statisticVisualizer placementPriority 0
par MstClusteringNetwork.visualizer.statisticVisualizer zIndex 10
par MstClusteringNetwork.visualizer.statisticVisualizer propertyName "\"\""
par MstClusteringNetwork.visualizer.statisticVisualizer propertyIndex "\"\""
par MstClusteringNetwork.visualizer.infoVisualizer typename "\"inet.visualizer.canvas.common.InfoCanvasVisualizer\""
par MstClusteringNetwork.visualizer.infoVisualizer visualizationTargetModule "\"^.^\""
par MstClusteringNetwork.visualizer.infoVisualizer visualizationSubjectModule "\"^.^\""
par MstClusteringNetwork.visualizer.infoVisualizer tags "\"\""
par MstClusteringNetwork.visualizer.infoVisualizer networkNodeVisualizerModule "\"^.networkNodeVisualizer\""
par MstClusteringNetwork.visualizer.infoVisualizer displayInfos true
par MstClusteringNetwork.visualizer.infoVisualizer modules "\"\""
attr mutable ""
par MstClusteringNetwork.visualizer.infoVisualizer format "\"%t\""
attr mutable ""
par MstClusteringNetwork.visualizer.infoVisualizer font "\"<default>\""
par MstClusteringNetwork.visualizer.infoVisualizer textColor "\"black\""
par MstClusteringNetwork.visualizer.infoVisualizer backgroundColor "\"white\""
par MstClusteringNetwork.visualizer.infoVisualizer opacity 1
par MstClusteringNetwork.visualizer.infoVisualizer placementHint "\"top\""
par MstClusteringNetwork.visualizer.infoVisualizer placementPriority 0
par MstClusteringNetwork.visualizer.infoVisualizer zIndex 10
par MstClusteringNetwork.visualizer.energyStorageVisualizer typename "\"inet.visualizer.canvas.power.EnergyStorageCanvasVisualizer\""
par MstClusteringNetwork.visualizer.energyStorageVisualizer visualizationTargetModule "\"^.^\""
par MstClusteringNetwork.visualizer.energyStorageVisualizer visualizationSubjectModule "\"^.^\""
par MstClusteringNetwork.visualizer.energyStorageVisualizer tags "\"\""
par MstClusteringNetwork.visualizer.energyStorageVisualizer networkNodeVisualizerModule "\"^.networkNodeVisualizer\""
par MstClusteringNetwork.visualizer.energyStorageVisualizer displayEnergyStorages false
par MstClusteringNetwork.visualizer.energyStorageVisualizer energyStorageFilter "\"**\""
par MstClusteringNetwork.visualizer.energyStorageVisualizer color "\"green\""
par MstClusteringNetwork.visualizer.energyStorageVisualizer width 8
par MstClusteringNetwork.visualizer.energyStorageVisualizer height 24
par MstClusteringNetwork.visualizer.energyStorageVisualizer spacing 2
par MstClusteringNetwork.visualizer.energyStorageVisualizer placementHint "\"right\""
par MstClusteringNetwork.visualizer.energyStorageVisualizer placementPriority 0
par MstClusteringNetwork.visualizer.energyStorageVisualizer zIndex 10
par MstClusteringNetwork.visualizer.mediumVisualizer typename "\"inet.visualizer.canvas.physicallayer.MediumCanvasVisualizer\""
par MstClusteringNetwork.visualizer.mediumVisualizer visualizationTargetModule "\"^.^\""
par MstClusteringNetwork.visualizer.mediumVisualizer visualizationSubjectModule "\"^.^\""
par MstClusteringNetwork.visualizer.mediumVisualizer tags "\"\""
par MstClusteringNetwork.visualizer.mediumVisualizer mediumModule "\"radioMedium\""
par MstClusteringNetwork.visualizer.mediumVisualizer networkNodeVisualizerModule "\"^.networkNodeVisualizer\""
par MstClusteringNetwork.visualizer.mediumVisualizer nodeFilter "\"*\""
attr mutable ""
par MstClusteringNetwork.visualizer.mediumVisualizer interfaceFilter "\"*\""
attr mutable ""
par MstClusteringNetwork.visualizer.mediumVisualizer packetFilter "(omnetpp::cValueHolder)holder: \"*\""
attr mutable ""
par MstClusteringNetwork.visualizer.mediumVisualizer displaySignals false
par MstClusteringNetwork.visualizer.mediumVisualizer signalColor "\"dark\""
par MstClusteringNetwork.visualizer.mediumVisualizer signalPropagationAnimationSpeed "nan "
attr mutable ""
par MstClusteringNetwork.visualizer.mediumVisualizer signalPropagationAnimationTime 1s
attr unit s
par MstClusteringNetwork.visualizer.mediumVisualizer signalPropagationAdditionalTime 0s
attr unit s
par MstClusteringNetwork.visualizer.mediumVisualizer signalTransmissionAnimationSpeed "nan "
attr mutable ""
par MstClusteringNetwork.visualizer.mediumVisualizer signalTransmissionAnimationTime 1s
attr unit s
par MstClusteringNetwork.visualizer.mediumVisualizer signalAnimationSpeedChangeTimeMode "\"realTime\""
attr enum realTime,animationTime,simulationTime
par MstClusteringNetwork.visualizer.mediumVisualizer signalAnimationSpeedChangeTime 1s
attr unit s
par MstClusteringNetwork.visualizer.mediumVisualizer displaySignalDepartures false
par MstClusteringNetwork.visualizer.mediumVisualizer signalDepartureImage "\"misc/signal_departure.png\""
par MstClusteringNetwork.visualizer.mediumVisualizer signalDeparturePlacementHint "\"topCenter\""
par MstClusteringNetwork.visualizer.mediumVisualizer signalDeparturePlacementPriority 1
par MstClusteringNetwork.visualizer.mediumVisualizer displaySignalArrivals false
par MstClusteringNetwork.visualizer.mediumVisualizer signalArrivalImage "\"misc/signal_arrival.png\""
par MstClusteringNetwork.visualizer.mediumVisualizer signalArrivalPlacementHint "\"topCenter\""
par MstClusteringNetwork.visualizer.mediumVisualizer signalArrivalPlacementPriority -1
par MstClusteringNetwork.visualizer.mediumVisualizer displayCommunicationRanges false
par MstClusteringNetwork.visualizer.mediumVisualizer communicationRangeLineColor "\"blue\""
par MstClusteringNetwork.visualizer.mediumVisualizer communicationRangeLineStyle "\"solid\""
par MstClusteringNetwork.visualizer.mediumVisualizer communicationRangeLineWidth 1
par MstClusteringNetwork.visualizer.mediumVisualizer displayInterferenceRanges false
par MstClusteringNetwork.visualizer.mediumVisualizer interferenceRangeLineColor "\"gray\""
par MstClusteringNetwork.visualizer.mediumVisualizer interferenceRangeLineStyle "\"solid\""
par MstClusteringNetwork.visualizer.mediumVisualizer interferenceRangeLineWidth 1
par MstClusteringNetwork.visualizer.mediumVisualizer autoPowerAxis true
par MstClusteringNetwork.visualizer.mediumVisualizer signalMinPower "inf dBmW"
attr unit dBmW
par MstClusteringNetwork.visualizer.mediumVisualizer signalMaxPower 0dBmW
attr unit dBmW
par MstClusteringNetwork.visualizer.mediumVisualizer signalMinPowerDensity "inf dBmWpMHz"
attr unit dBmWpMHz
par MstClusteringNetwork.visualizer.mediumVisualizer signalMaxPowerDensity "-inf dBmWpMHz"
attr unit dBmWpMHz
par MstClusteringNetwork.visualizer.mediumVisualizer autoTimeAxis true
par MstClusteringNetwork.visualizer.mediumVisualizer signalMinTime 0s
attr unit s
par MstClusteringNetwork.visualizer.mediumVisualizer signalMaxTime 0s
attr unit s
par MstClusteringNetwork.visualizer.mediumVisualizer autoFrequencyAxis true
par MstClusteringNetwork.visualizer.mediumVisualizer signalMinFrequency "inf Hz"
attr unit Hz
par MstClusteringNetwork.visualizer.mediumVisualizer signalMaxFrequency "-inf Hz"
attr unit Hz
par MstClusteringNetwork.visualizer.mediumVisualizer displayMainPowerDensityMap false
par MstClusteringNetwork.visualizer.mediumVisualizer mainPowerDensityMapPixmapDensity 1
par MstClusteringNetwork.visualizer.mediumVisualizer mainPowerDensityMapMinX 0
par MstClusteringNetwork.visualizer.mediumVisualizer mainPowerDensityMapMaxX "nan "
par MstClusteringNetwork.visualizer.mediumVisualizer mainPowerDensityMapMinY 0
par MstClusteringNetwork.visualizer.mediumVisualizer mainPowerDensityMapMaxY "nan "
par MstClusteringNetwork.visualizer.mediumVisualizer mainPowerDensityMapZ 0
par MstClusteringNetwork.visualizer.mediumVisualizer mainPowerDensityMapFigureXTickCount 3
par MstClusteringNetwork.visualizer.mediumVisualizer mainPowerDensityMapFigureYTickCount 3
par MstClusteringNetwork.visualizer.mediumVisualizer displayPowerDensityMaps false
par MstClusteringNetwork.visualizer.mediumVisualizer powerDensityMapMode "\"auto\""
attr enum total,signal,auto
par MstClusteringNetwork.visualizer.mediumVisualizer powerDensityMapPixelMode "\"mean\""
attr enum sample,partition,mean
par MstClusteringNetwork.visualizer.mediumVisualizer powerDensityMapApproximationSize 10
par MstClusteringNetwork.visualizer.mediumVisualizer powerDensityMapCenterFrequency "nan Hz"
attr mutable ""
attr unit Hz
par MstClusteringNetwork.visualizer.mediumVisualizer powerDensityMapBandwidth 0Hz
attr mutable ""
attr unit Hz
par MstClusteringNetwork.visualizer.mediumVisualizer powerDensityMapFigureWidth 200
par MstClusteringNetwork.visualizer.mediumVisualizer powerDensityMapFigureHeight 120
par MstClusteringNetwork.visualizer.mediumVisualizer powerDensityMapPixmapWidth 200
par MstClusteringNetwork.visualizer.mediumVisualizer powerDensityMapPixmapHeight 120
par MstClusteringNetwork.visualizer.mediumVisualizer powerDensityMapZ 0
par MstClusteringNetwork.visualizer.mediumVisualizer powerDensityMapFigureXTickCount 3
par MstClusteringNetwork.visualizer.mediumVisualizer powerDensityMapFigureYTickCount 3
par MstClusteringNetwork.visualizer.mediumVisualizer displaySpectrums false
par MstClusteringNetwork.visualizer.mediumVisualizer spectrumMode "\"auto\""
attr enum total,signal,auto
par MstClusteringNetwork.visualizer.mediumVisualizer spectrumFigureWidth 200
par MstClusteringNetwork.visualizer.mediumVisualizer spectrumFigureHeight 120
par MstClusteringNetwork.visualizer.mediumVisualizer spectrumFigureXTickCount 3
par MstClusteringNetwork.visualizer.mediumVisualizer spectrumFigureYTickCount 5
par MstClusteringNetwork.visualizer.mediumVisualizer spectrumFigureInterpolationSize 5
par MstClusteringNetwork.visualizer.mediumVisualizer spectrumPlacementHint "\"bottomCenter\""
par MstClusteringNetwork.visualizer.mediumVisualizer spectrumPlacementPriority -1
par MstClusteringNetwork.visualizer.mediumVisualizer displaySpectrograms false
par MstClusteringNetwork.visualizer.mediumVisualizer spectrogramMode "\"auto\""
attr enum total,signal,auto
par MstClusteringNetwork.visualizer.mediumVisualizer spectrogramPixelMode "\"mean\""
attr enum sample,partition,mean
par MstClusteringNetwork.visualizer.mediumVisualizer spectrogramFigureWidth 200
par MstClusteringNetwork.visualizer.mediumVisualizer spectrogramFigureHeight 120
par MstClusteringNetwork.visualizer.mediumVisualizer spectrogramPixmapWidth 200
par MstClusteringNetwork.visualizer.mediumVisualizer spectrogramPixmapHeight 120
par MstClusteringNetwork.visualizer.mediumVisualizer spectrogramFigureXTickCount 3
par MstClusteringNetwork.visualizer.mediumVisualizer spectrogramFigureYTickCount 5
par MstClusteringNetwork.visualizer.mediumVisualizer spectrogramPlacementHint "\"bottomCenter\""
par MstClusteringNetwork.visualizer.mediumVisualizer spectrogramPlacementPriority -1
par MstClusteringNetwork.visualizer.mediumVisualizer zIndex 0
par MstClusteringNetwork.visualizer.mediumVisualizer signalShape "\"ring\""
attr enum ring,sphere
par MstClusteringNetwork.visualizer.mediumVisualizer signalOpacity 0.5
par MstClusteringNetwork.visualizer.mediumVisualizer signalRingCount 20
par MstClusteringNetwork.visualizer.mediumVisualizer signalRingSize 50m
attr unit m
par MstClusteringNetwork.visualizer.mediumVisualizer signalFadingDistance 50m
attr unit m
par MstClusteringNetwork.visualizer.mediumVisualizer signalFadingFactor 1.2
par MstClusteringNetwork.visualizer.mediumVisualizer signalWaveCount 20
par MstClusteringNetwork.visualizer.mediumVisualizer signalWaveLength 50m
attr unit m
par MstClusteringNetwork.visualizer.mediumVisualizer signalWaveWidth 10m
attr unit m
par MstClusteringNetwork.visualizer.mediumVisualizer signalWaveFadingAnimationSpeedFactor 1
par MstClusteringNetwork.visualizer.mediumVisualizer displayCommunicationHeat false
par MstClusteringNetwork.visualizer.obstacleLossVisualizer typename "\"inet.visualizer.canvas.physicallayer.TracingObstacleLossCanvasVisualizer\""
par MstClusteringNetwork.visualizer.obstacleLossVisualizer visualizationTargetModule "\"^.^\""
par MstClusteringNetwork.visualizer.obstacleLossVisualizer visualizationSubjectModule "\"^.^\""
par MstClusteringNetwork.visualizer.obstacleLossVisualizer tags "\"\""
par MstClusteringNetwork.visualizer.obstacleLossVisualizer displayIntersections false
par MstClusteringNetwork.visualizer.obstacleLossVisualizer intersectionLineColor "\"red\""
par MstClusteringNetwork.visualizer.obstacleLossVisualizer intersectionLineStyle "\"solid\""
par MstClusteringNetwork.visualizer.obstacleLossVisualizer intersectionLineWidth 1
par MstClusteringNetwork.visualizer.obstacleLossVisualizer displayFaceNormalVectors false
par MstClusteringNetwork.visualizer.obstacleLossVisualizer faceNormalLineColor "\"grey\""
par MstClusteringNetwork.visualizer.obstacleLossVisualizer faceNormalLineStyle "\"solid\""
par MstClusteringNetwork.visualizer.obstacleLossVisualizer faceNormalLineWidth 1
par MstClusteringNetwork.visualizer.obstacleLossVisualizer fadeOutMode "\"realTime\""
attr enum realTime,animationTime,simulationTime
par MstClusteringNetwork.visualizer.obstacleLossVisualizer fadeOutTime 1s
attr unit s
par MstClusteringNetwork.visualizer.obstacleLossVisualizer fadeOutAnimationSpeed 0
par MstClusteringNetwork.visualizer.obstacleLossVisualizer zIndex 0
par MstClusteringNetwork.visualizer.packetDropVisualizer typename "\"inet.visualizer.canvas.common.PacketDropCanvasVisualizer\""
par MstClusteringNetwork.visualizer.packetDropVisualizer visualizationTargetModule "\"^.^\""
par MstClusteringNetwork.visualizer.packetDropVisualizer visualizationSubjectModule "\"^.^\""
par MstClusteringNetwork.visualizer.packetDropVisualizer tags "\"\""
par MstClusteringNetwork.visualizer.packetDropVisualizer displayPacketDrops false
par MstClusteringNetwork.visualizer.packetDropVisualizer nodeFilter "\"*\""
attr mutable ""
par MstClusteringNetwork.visualizer.packetDropVisualizer interfaceFilter "\"*\""
attr mutable ""
par MstClusteringNetwork.visualizer.packetDropVisualizer packetFilter "(omnetpp::cValueHolder)holder: \"*\""
attr mutable ""
par MstClusteringNetwork.visualizer.packetDropVisualizer detailsFilter "\"*\""
attr mutable ""
par MstClusteringNetwork.visualizer.packetDropVisualizer icon "\"msg/packet_s\""
par MstClusteringNetwork.visualizer.packetDropVisualizer iconTintAmount 1
par MstClusteringNetwork.visualizer.packetDropVisualizer iconTintColor "\"dark\""
par MstClusteringNetwork.visualizer.packetDropVisualizer labelFormat "\"%n\""
attr mutable ""
par MstClusteringNetwork.visualizer.packetDropVisualizer labelFont "\"<default>\""
par MstClusteringNetwork.visualizer.packetDropVisualizer labelColor "\"black\""
par MstClusteringNetwork.visualizer.packetDropVisualizer fadeOutMode "\"realTime\""
attr enum realTime,animationTime,simulationTime
par MstClusteringNetwork.visualizer.packetDropVisualizer fadeOutTime 1s
attr unit s
par MstClusteringNetwork.visualizer.packetDropVisualizer fadeOutAnimationSpeed 0
par MstClusteringNetwork.visualizer.packetDropVisualizer zIndex 10
par MstClusteringNetwork.visualizer.packetDropVisualizer dx 32
par MstClusteringNetwork.visualizer.packetDropVisualizer dy 64
par MstClusteringNetwork.visualizer.packetFlowVisualizer typename "\"inet.visualizer.canvas.flow.PacketFlowCanvasVisualizer\""
par MstClusteringNetwork.visualizer.packetFlowVisualizer visualizationTargetModule "\"^.^\""
par MstClusteringNetwork.visualizer.packetFlowVisualizer visualizationSubjectModule "\"^.^\""
par MstClusteringNetwork.visualizer.packetFlowVisualizer tags "\"\""
par MstClusteringNetwork.visualizer.packetFlowVisualizer displayRoutes false
par MstClusteringNetwork.visualizer.packetFlowVisualizer startPathSignal "\"packetFlowStarted\""
par MstClusteringNetwork.visualizer.packetFlowVisualizer extendPathSignal "\"packetReceivedFromLower\""
par MstClusteringNetwork.visualizer.packetFlowVisualizer endPathSignal "\"packetFlowEnded\""
par MstClusteringNetwork.visualizer.packetFlowVisualizer nodeFilter "\"*\""
attr mutable ""
par MstClusteringNetwork.visualizer.packetFlowVisualizer packetFilter "(omnetpp::cValueHolder)holder: \"*\""
attr mutable ""
par MstClusteringNetwork.visualizer.packetFlowVisualizer lineColor "\"dark\""
par MstClusteringNetwork.visualizer.packetFlowVisualizer lineStyle "\"dashed\""
par MstClusteringNetwork.visualizer.packetFlowVisualizer lineWidth 3
par MstClusteringNetwork.visualizer.packetFlowVisualizer lineSmooth false
par MstClusteringNetwork.visualizer.packetFlowVisualizer lineShift 16
par MstClusteringNetwork.visualizer.packetFlowVisualizer lineShiftMode "\"normal\""
par MstClusteringNetwork.visualizer.packetFlowVisualizer lineContactSpacing 3
par MstClusteringNetwork.visualizer.packetFlowVisualizer lineContactMode "\"rectangular\""
attr enum circular,rectangular
par MstClusteringNetwork.visualizer.packetFlowVisualizer labelFormat "\"%L %p pk (%l)\""
par MstClusteringNetwork.visualizer.packetFlowVisualizer labelFont "\"<default>, 8px\""
par MstClusteringNetwork.visualizer.packetFlowVisualizer labelColor "\"\""
par MstClusteringNetwork.visualizer.packetFlowVisualizer fadeOutMode "\"realTime\""
attr enum realTime,animationTime,simulationTime
par MstClusteringNetwork.visualizer.packetFlowVisualizer fadeOutTime 0s
attr unit s
par MstClusteringNetwork.visualizer.packetFlowVisualizer fadeOutAnimationSpeed 0
par MstClusteringNetwork.visualizer.packetFlowVisualizer zIndex 4
par MstClusteringNetwork.visualizer.queueVisualizer typename "\"inet.visualizer.canvas.common.QueueCanvasVisualizer\""
par MstClusteringNetwork.visualizer.queueVisualizer visualizationTargetModule "\"^.^\""
par MstClusteringNetwork.visualizer.queueVisualizer visualizationSubjectModule "\"^.^\""
par MstClusteringNetwork.visualizer.queueVisualizer tags "\"\""
par MstClusteringNetwork.visualizer.queueVisualizer networkNodeVisualizerModule "\"^.networkNodeVisualizer\""
par MstClusteringNetwork.visualizer.queueVisualizer displayQueues false
par MstClusteringNetwork.visualizer.queueVisualizer queueFilter "\"**\""
par MstClusteringNetwork.visualizer.queueVisualizer color "\"blue\""
par MstClusteringNetwork.visualizer.queueVisualizer width 8
par MstClusteringNetwork.visualizer.queueVisualizer height 24
par MstClusteringNetwork.visualizer.queueVisualizer spacing 2
par MstClusteringNetwork.visualizer.queueVisualizer placementHint "\"right\""
par MstClusteringNetwork.visualizer.queueVisualizer placementPriority 0
par MstClusteringNetwork.visualizer.queueVisualizer zIndex 10
par MstClusteringNetwork.visualizer.gateScheduleVisualizer typename "\"inet.visualizer.canvas.common.GateScheduleCanvasVisualizer\""
par MstClusteringNetwork.visualizer.gateScheduleVisualizer visualizationTargetModule "\"^.^\""
par MstClusteringNetwork.visualizer.gateScheduleVisualizer visualizationSubjectModule "\"^.^\""
par MstClusteringNetwork.visualizer.gateScheduleVisualizer tags "\"\""
par MstClusteringNetwork.visualizer.gateScheduleVisualizer networkNodeVisualizerModule "\"^.networkNodeVisualizer\""
par MstClusteringNetwork.visualizer.gateScheduleVisualizer displayGateSchedules false
par MstClusteringNetwork.visualizer.gateScheduleVisualizer labelFormat "\"%i %D\""
par MstClusteringNetwork.visualizer.gateScheduleVisualizer gateFilter "\"**\""
par MstClusteringNetwork.visualizer.gateScheduleVisualizer width 100
par MstClusteringNetwork.visualizer.gateScheduleVisualizer height 8
par MstClusteringNetwork.visualizer.gateScheduleVisualizer spacing 2
par MstClusteringNetwork.visualizer.gateScheduleVisualizer placementHint "\"right\""
par MstClusteringNetwork.visualizer.gateScheduleVisualizer placementPriority 0
par MstClusteringNetwork.visualizer.gateScheduleVisualizer displayDuration 0s
attr mutable ""
attr unit s
par MstClusteringNetwork.visualizer.gateScheduleVisualizer currentTimePosition 50
par MstClusteringNetwork.visualizer.gateScheduleVisualizer zIndex 10
par MstClusteringNetwork.visualizer.radioVisualizer typename "\"inet.visualizer.canvas.physicallayer.RadioCanvasVisualizer\""
par MstClusteringNetwork.visualizer.radioVisualizer visualizationTargetModule "\"^.^\""
par MstClusteringNetwork.visualizer.radioVisualizer visualizationSubjectModule "\"^.^\""
par MstClusteringNetwork.visualizer.radioVisualizer tags "\"\""
par MstClusteringNetwork.visualizer.radioVisualizer networkNodeVisualizerModule "\"^.networkNodeVisualizer\""
par MstClusteringNetwork.visualizer.radioVisualizer displayRadios false
par MstClusteringNetwork.visualizer.radioVisualizer displayRadioMode true
par MstClusteringNetwork.visualizer.radioVisualizer displayReceptionState true
par MstClusteringNetwork.visualizer.radioVisualizer displayTransmissionState true
par MstClusteringNetwork.visualizer.radioVisualizer displayAntennaLobes false
par MstClusteringNetwork.visualizer.radioVisualizer radioFilter "\"**\""
attr mutable ""
par MstClusteringNetwork.visualizer.radioVisualizer radioModeImages "\"block/process_vs block/timer_vs block/wrx_vs block/wtx_vs block/wrxtx_vs block/cogwheel_vs\""
par MstClusteringNetwork.visualizer.radioVisualizer receptionStateImages "\"- - misc/receiving misc/receiving\""
par MstClusteringNetwork.visualizer.radioVisualizer transmissionStateImages "\"- - misc/transmitting\""
par MstClusteringNetwork.visualizer.radioVisualizer width 16
par MstClusteringNetwork.visualizer.radioVisualizer height 16
par MstClusteringNetwork.visualizer.radioVisualizer placementHint "\"bottomRight\""
par MstClusteringNetwork.visualizer.radioVisualizer placementPriority 0
par MstClusteringNetwork.visualizer.radioVisualizer antennaLobeNormalize false
par MstClusteringNetwork.visualizer.radioVisualizer antennaLobeRelativeLabels false
par MstClusteringNetwork.visualizer.radioVisualizer antennaLobePlaneGlobal true
par MstClusteringNetwork.visualizer.radioVisualizer antennaLobePlane "\"view\""
attr enum view,xy,xz,yz
par MstClusteringNetwork.visualizer.radioVisualizer antennaLobeMode "\"logarithmic\""
attr enum logarithmic,linear
par MstClusteringNetwork.visualizer.radioVisualizer antennaLobeLogarithmicBase 10
par MstClusteringNetwork.visualizer.radioVisualizer antennaLobeLogarithmicScale 100
par MstClusteringNetwork.visualizer.radioVisualizer antennaLobeRadius 100
par MstClusteringNetwork.visualizer.radioVisualizer antennaLobeStep 10deg
attr unit deg
par MstClusteringNetwork.visualizer.radioVisualizer antennaLobeOpacity 0.25
par MstClusteringNetwork.visualizer.radioVisualizer antennaLobeLineSmooth true
par MstClusteringNetwork.visualizer.radioVisualizer antennaLobeLineColor "\"black\""
par MstClusteringNetwork.visualizer.radioVisualizer antennaLobeLineStyle "\"solid\""
par MstClusteringNetwork.visualizer.radioVisualizer antennaLobeLineWidth 1
par MstClusteringNetwork.visualizer.radioVisualizer antennaLobeFillColor "\"white\""
par MstClusteringNetwork.visualizer.radioVisualizer zIndex 10
par MstClusteringNetwork.visualizer.physicalLinkVisualizer typename "\"inet.visualizer.canvas.physicallayer.PhysicalLinkCanvasVisualizer\""
par MstClusteringNetwork.visualizer.physicalLinkVisualizer visualizationTargetModule "\"^.^\""
par MstClusteringNetwork.visualizer.physicalLinkVisualizer visualizationSubjectModule "\"^.^\""
par MstClusteringNetwork.visualizer.physicalLinkVisualizer tags "\"\""
par MstClusteringNetwork.visualizer.physicalLinkVisualizer displayLinks false
par MstClusteringNetwork.visualizer.physicalLinkVisualizer activityLevel "\"service\""
attr enum service,peer,protocol
par MstClusteringNetwork.visualizer.physicalLinkVisualizer nodeFilter "\"*\""
attr mutable ""
par MstClusteringNetwork.visualizer.physicalLinkVisualizer interfaceFilter "\"*\""
attr mutable ""
par MstClusteringNetwork.visualizer.physicalLinkVisualizer packetFilter "(omnetpp::cValueHolder)holder: \"*\""
attr mutable ""
par MstClusteringNetwork.visualizer.physicalLinkVisualizer lineColor "\"olive\""
par MstClusteringNetwork.visualizer.physicalLinkVisualizer lineStyle "\"dotted\""
par MstClusteringNetwork.visualizer.physicalLinkVisualizer lineWidth 3
par MstClusteringNetwork.visualizer.physicalLinkVisualizer lineShift 16
par MstClusteringNetwork.visualizer.physicalLinkVisualizer lineShiftMode "\"normal\""
par MstClusteringNetwork.visualizer.physicalLinkVisualizer lineContactSpacing 3
par MstClusteringNetwork.visualizer.physicalLinkVisualizer lineContactMode "\"rectangular\""
attr enum circular,rectangular
par MstClusteringNetwork.visualizer.physicalLinkVisualizer labelFormat "\"%n\""
par MstClusteringNetwork.visualizer.physicalLinkVisualizer labelFont "\"<default>, 8px\""
par MstClusteringNetwork.visualizer.physicalLinkVisualizer labelColor "\"olive\""
par MstClusteringNetwork.visualizer.physicalLinkVisualizer fadeOutMode "\"realTime\""
attr enum realTime,animationTime,simulationTime
par MstClusteringNetwork.visualizer.physicalLinkVisualizer fadeOutTime 1s
attr unit s
par MstClusteringNetwork.visualizer.physicalLinkVisualizer fadeOutAnimationSpeed 0
par MstClusteringNetwork.visualizer.physicalLinkVisualizer holdAnimationTime 0s
attr unit s
par MstClusteringNetwork.visualizer.physicalLinkVisualizer zIndex 1
par MstClusteringNetwork.visualizer.interfaceTableVisualizer typename "\"inet.visualizer.canvas.linklayer.InterfaceTableCanvasVisualizer\""
par MstClusteringNetwork.visualizer.interfaceTableVisualizer visualizationTargetModule "\"^.^\""
par MstClusteringNetwork.visualizer.interfaceTableVisualizer visualizationSubjectModule "\"^.^\""
par MstClusteringNetwork.visualizer.interfaceTableVisualizer tags "\"\""
par MstClusteringNetwork.visualizer.interfaceTableVisualizer networkNodeVisualizerModule "\"^.networkNodeVisualizer\""
par MstClusteringNetwork.visualizer.interfaceTableVisualizer displayInterfaceTables false
par MstClusteringNetwork.visualizer.interfaceTableVisualizer displayWiredInterfacesAtConnections true
par MstClusteringNetwork.visualizer.interfaceTableVisualizer displayBackground false
par MstClusteringNetwork.visualizer.interfaceTableVisualizer nodeFilter "\"*\""
attr mutable ""
par MstClusteringNetwork.visualizer.interfaceTableVisualizer interfaceFilter "\"not(lo*)\""
attr mutable ""
par MstClusteringNetwork.visualizer.interfaceTableVisualizer format "\"%N %\\\\%a%/%l\""
attr mutable ""
par MstClusteringNetwork.visualizer.interfaceTableVisualizer placementHint "\"top\""
par MstClusteringNetwork.visualizer.interfaceTableVisualizer placementPriority 0
par MstClusteringNetwork.visualizer.interfaceTableVisualizer font "\"<default>\""
par MstClusteringNetwork.visualizer.interfaceTableVisualizer textColor "\"#005030\""
par MstClusteringNetwork.visualizer.interfaceTableVisualizer backgroundColor "\"white\""
par MstClusteringNetwork.visualizer.interfaceTableVisualizer opacity 1
par MstClusteringNetwork.visualizer.interfaceTableVisualizer zIndex 10
par MstClusteringNetwork.visualizer.dataLinkVisualizer typename "\"inet.visualizer.canvas.linklayer.DataLinkCanvasVisualizer\""
par MstClusteringNetwork.visualizer.dataLinkVisualizer visualizationTargetModule "\"^.^\""
par MstClusteringNetwork.visualizer.dataLinkVisualizer visualizationSubjectModule "\"^.^\""
par MstClusteringNetwork.visualizer.dataLinkVisualizer tags "\"\""
par MstClusteringNetwork.visualizer.dataLinkVisualizer displayLinks false
par MstClusteringNetwork.visualizer.dataLinkVisualizer activityLevel "\"service\""
attr enum service,peer,protocol
par MstClusteringNetwork.visualizer.dataLinkVisualizer nodeFilter "\"*\""
attr mutable ""
par MstClusteringNetwork.visualizer.dataLinkVisualizer interfaceFilter "\"*\""
attr mutable ""
par MstClusteringNetwork.visualizer.dataLinkVisualizer packetFilter "(omnetpp::cValueHolder)holder: \"*\""
attr mutable ""
par MstClusteringNetwork.visualizer.dataLinkVisualizer lineColor "\"darkcyan\""
par MstClusteringNetwork.visualizer.dataLinkVisualizer lineStyle "\"solid\""
par MstClusteringNetwork.visualizer.dataLinkVisualizer lineWidth 3
par MstClusteringNetwork.visualizer.dataLinkVisualizer lineShift 16
par MstClusteringNetwork.visualizer.dataLinkVisualizer lineShiftMode "\"normal\""
par MstClusteringNetwork.visualizer.dataLinkVisualizer lineContactSpacing 3
par MstClusteringNetwork.visualizer.dataLinkVisualizer lineContactMode "\"rectangular\""
attr enum circular,rectangular
par MstClusteringNetwork.visualizer.dataLinkVisualizer labelFormat "\"%n\""
par MstClusteringNetwork.visualizer.dataLinkVisualizer labelFont "\"<default>, 8px\""
par MstClusteringNetwork.visualizer.dataLinkVisualizer labelColor "\"darkcyan\""
par MstClusteringNetwork.visualizer.dataLinkVisualizer fadeOutMode "\"realTime\""
attr enum realTime,animationTime,simulationTime
par MstClusteringNetwork.visualizer.dataLinkVisualizer fadeOutTime 1s
attr unit s
par MstClusteringNetwork.visualizer.dataLinkVisualizer fadeOutAnimationSpeed 0
par MstClusteringNetwork.visualizer.dataLinkVisualizer holdAnimationTime 0s
attr unit s
par MstClusteringNetwork.visualizer.dataLinkVisualizer zIndex 2
par MstClusteringNetwork.visualizer.linkBreakVisualizer typename "\"inet.visualizer.canvas.linklayer.LinkBreakCanvasVisualizer\""
par MstClusteringNetwork.visualizer.linkBreakVisualizer visualizationTargetModule "\"^.^\""
par MstClusteringNetwork.visualizer.linkBreakVisualizer visualizationSubjectModule "\"^.^\""
par MstClusteringNetwork.visualizer.linkBreakVisualizer tags "\"\""
par MstClusteringNetwork.visualizer.linkBreakVisualizer displayLinkBreaks false
par MstClusteringNetwork.visualizer.linkBreakVisualizer nodeFilter "\"*\""
attr mutable ""
par MstClusteringNetwork.visualizer.linkBreakVisualizer interfaceFilter "\"*\""
attr mutable ""
par MstClusteringNetwork.visualizer.linkBreakVisualizer packetFilter "(omnetpp::cValueHolder)holder: \"*\""
attr mutable ""
par MstClusteringNetwork.visualizer.linkBreakVisualizer icon "\"status/stop\""
par MstClusteringNetwork.visualizer.linkBreakVisualizer iconTintAmount 0
par MstClusteringNetwork.visualizer.linkBreakVisualizer iconTintColor "\"\""
par MstClusteringNetwork.visualizer.linkBreakVisualizer fadeOutMode "\"realTime\""
attr enum realTime,animationTime,simulationTime
par MstClusteringNetwork.visualizer.linkBreakVisualizer fadeOutTime 1s
attr unit s
par MstClusteringNetwork.visualizer.linkBreakVisualizer fadeOutAnimationSpeed 0
par MstClusteringNetwork.visualizer.linkBreakVisualizer zIndex 2
par MstClusteringNetwork.visualizer.ieee80211Visualizer typename "\"inet.visualizer.canvas.linklayer.Ieee80211CanvasVisualizer\""
par MstClusteringNetwork.visualizer.ieee80211Visualizer visualizationTargetModule "\"^.^\""
par MstClusteringNetwork.visualizer.ieee80211Visualizer visualizationSubjectModule "\"^.^\""
par MstClusteringNetwork.visualizer.ieee80211Visualizer tags "\"\""
par MstClusteringNetwork.visualizer.ieee80211Visualizer networkNodeVisualizerModule "\"^.networkNodeVisualizer\""
par MstClusteringNetwork.visualizer.ieee80211Visualizer displayAssociations false
par MstClusteringNetwork.visualizer.ieee80211Visualizer nodeFilter "\"*\""
attr mutable ""
par MstClusteringNetwork.visualizer.ieee80211Visualizer interfaceFilter "\"*\""
attr mutable ""
par MstClusteringNetwork.visualizer.ieee80211Visualizer minPower -85dBm
attr unit dBm
par MstClusteringNetwork.visualizer.ieee80211Visualizer maxPower -50dBm
attr unit dBm
par MstClusteringNetwork.visualizer.ieee80211Visualizer icons "\"misc/signal_power_0 misc/signal_power_1 misc/signal_power_2 misc/signal_power_3\""
par MstClusteringNetwork.visualizer.ieee80211Visualizer iconColor "\"dark\""
par MstClusteringNetwork.visualizer.ieee80211Visualizer labelFont "\"<default>\""
par MstClusteringNetwork.visualizer.ieee80211Visualizer labelColor "\"black\""
par MstClusteringNetwork.visualizer.ieee80211Visualizer placementHint "\"top\""
par MstClusteringNetwork.visualizer.ieee80211Visualizer placementPriority 0
par MstClusteringNetwork.visualizer.ieee80211Visualizer zIndex 2
par MstClusteringNetwork.visualizer.networkRouteVisualizer typename "\"inet.visualizer.canvas.networklayer.NetworkRouteCanvasVisualizer\""
par MstClusteringNetwork.visualizer.networkRouteVisualizer visualizationTargetModule "\"^.^\""
par MstClusteringNetwork.visualizer.networkRouteVisualizer visualizationSubjectModule "\"^.^\""
par MstClusteringNetwork.visualizer.networkRouteVisualizer tags "\"\""
par MstClusteringNetwork.visualizer.networkRouteVisualizer displayRoutes false
par MstClusteringNetwork.visualizer.networkRouteVisualizer startPathSignal "\"packetReceivedFromUpper\""
par MstClusteringNetwork.visualizer.networkRouteVisualizer extendPathSignal "\"packetReceivedFromLower\""
par MstClusteringNetwork.visualizer.networkRouteVisualizer endPathSignal "\"packetSentToUpper\""
par MstClusteringNetwork.visualizer.networkRouteVisualizer nodeFilter "\"*\""
attr mutable ""
par MstClusteringNetwork.visualizer.networkRouteVisualizer packetFilter "(omnetpp::cValueHolder)holder: \"*\""
attr mutable ""
par MstClusteringNetwork.visualizer.networkRouteVisualizer lineColor "\"dark\""
par MstClusteringNetwork.visualizer.networkRouteVisualizer lineStyle "\"solid\""
par MstClusteringNetwork.visualizer.networkRouteVisualizer lineWidth 3
par MstClusteringNetwork.visualizer.networkRouteVisualizer lineSmooth false
par MstClusteringNetwork.visualizer.networkRouteVisualizer lineShift 16
par MstClusteringNetwork.visualizer.networkRouteVisualizer lineShiftMode "\"normal\""
par MstClusteringNetwork.visualizer.networkRouteVisualizer lineContactSpacing 3
par MstClusteringNetwork.visualizer.networkRouteVisualizer lineContactMode "\"rectangular\""
attr enum circular,rectangular
par MstClusteringNetwork.visualizer.networkRouteVisualizer labelFormat "\"%n\""
par MstClusteringNetwork.visualizer.networkRouteVisualizer labelFont "\"<default>, 8px\""
par MstClusteringNetwork.visualizer.networkRouteVisualizer labelColor "\"\""
par MstClusteringNetwork.visualizer.networkRouteVisualizer fadeOutMode "\"realTime\""
attr enum realTime,animationTime,simulationTime
par MstClusteringNetwork.visualizer.networkRouteVisualizer fadeOutTime 1s
attr unit s
par MstClusteringNetwork.visualizer.networkRouteVisualizer fadeOutAnimationSpeed 0
par MstClusteringNetwork.visualizer.networkRouteVisualizer zIndex 3
par MstClusteringNetwork.visualizer.routingTableVisualizer typename "\"inet.visualizer.canvas.networklayer.RoutingTableCanvasVisualizer\""
par MstClusteringNetwork.visualizer.routingTableVisualizer visualizationTargetModule "\"^.^\""
par MstClusteringNetwork.visualizer.routingTableVisualizer visualizationSubjectModule "\"^.^\""
par MstClusteringNetwork.visualizer.routingTableVisualizer tags "\"\""
par MstClusteringNetwork.visualizer.routingTableVisualizer displayRoutingTables false
par MstClusteringNetwork.visualizer.routingTableVisualizer displayRoutesIndividually true
par MstClusteringNetwork.visualizer.routingTableVisualizer displayLabels true
par MstClusteringNetwork.visualizer.routingTableVisualizer destinationFilter "\"*\""
attr mutable ""
par MstClusteringNetwork.visualizer.routingTableVisualizer nodeFilter "\"*\""
attr mutable ""
par MstClusteringNetwork.visualizer.routingTableVisualizer lineColor "\"black\""
par MstClusteringNetwork.visualizer.routingTableVisualizer lineStyle "\"solid\""
par MstClusteringNetwork.visualizer.routingTableVisualizer lineWidth 2
par MstClusteringNetwork.visualizer.routingTableVisualizer lineShift 16
par MstClusteringNetwork.visualizer.routingTableVisualizer lineShiftMode "\"normal\""
par MstClusteringNetwork.visualizer.routingTableVisualizer lineContactSpacing 3
par MstClusteringNetwork.visualizer.routingTableVisualizer lineContactMode "\"rectangular\""
attr enum circular,rectangular
par MstClusteringNetwork.visualizer.routingTableVisualizer labelFormat "\"%d/%m -> %g (%n)\""
attr mutable ""
par MstClusteringNetwork.visualizer.routingTableVisualizer labelFont "\"<default>, 8px\""
par MstClusteringNetwork.visualizer.routingTableVisualizer labelColor "\"black\""
par MstClusteringNetwork.visualizer.routingTableVisualizer zIndex 0
par MstClusteringNetwork.visualizer.transportRouteVisualizer typename "\"inet.visualizer.canvas.transportlayer.TransportRouteCanvasVisualizer\""
par MstClusteringNetwork.visualizer.transportRouteVisualizer visualizationTargetModule "\"^.^\""
par MstClusteringNetwork.visualizer.transportRouteVisualizer visualizationSubjectModule "\"^.^\""
par MstClusteringNetwork.visualizer.transportRouteVisualizer tags "\"\""
par MstClusteringNetwork.visualizer.transportRouteVisualizer displayRoutes false
par MstClusteringNetwork.visualizer.transportRouteVisualizer startPathSignal "\"packetReceivedFromUpper\""
par MstClusteringNetwork.visualizer.transportRouteVisualizer extendPathSignal "\"packetReceivedFromLower\""
par MstClusteringNetwork.visualizer.transportRouteVisualizer endPathSignal "\"packetSentToUpper\""
par MstClusteringNetwork.visualizer.transportRouteVisualizer nodeFilter "\"*\""
attr mutable ""
par MstClusteringNetwork.visualizer.transportRouteVisualizer packetFilter "(omnetpp::cValueHolder)holder: \"*\""
attr mutable ""
par MstClusteringNetwork.visualizer.transportRouteVisualizer lineColor "\"dark\""
par MstClusteringNetwork.visualizer.transportRouteVisualizer lineStyle "\"solid\""
par MstClusteringNetwork.visualizer.transportRouteVisualizer lineWidth 3
par MstClusteringNetwork.visualizer.transportRouteVisualizer lineSmooth false
par MstClusteringNetwork.visualizer.transportRouteVisualizer lineShift 16
par MstClusteringNetwork.visualizer.transportRouteVisualizer lineShiftMode "\"normal\""
par MstClusteringNetwork.visualizer.transportRouteVisualizer lineContactSpacing 3
par MstClusteringNetwork.visualizer.transportRouteVisualizer lineContactMode "\"rectangular\""
attr enum circular,rectangular
par MstClusteringNetwork.visualizer.transportRouteVisualizer labelFormat "\"%n\""
par MstClusteringNetwork.visualizer.transportRouteVisualizer labelFont "\"<default>, 8px\""
par MstClusteringNetwork.visualizer.transportRouteVisualizer labelColor "\"\""
par MstClusteringNetwork.visualizer.transportRouteVisualizer fadeOutMode "\"realTime\""
attr enum realTime,animationTime,simulationTime
par MstClusteringNetwork.visualizer.transportRouteVisualizer fadeOutTime 1s
attr unit s
par MstClusteringNetwork.visualizer.transportRouteVisualizer fadeOutAnimationSpeed 0
par MstClusteringNetwork.visualizer.transportRouteVisualizer zIndex 4
par MstClusteringNetwork.visualizer.transportConnectionVisualizer typename "\"inet.visualizer.canvas.transportlayer.TransportConnectionCanvasVisualizer\""
par MstClusteringNetwork.visualizer.transportConnectionVisualizer visualizationTargetModule "\"^.^\""
par MstClusteringNetwork.visualizer.transportConnectionVisualizer visualizationSubjectModule "\"^.^\""
par MstClusteringNetwork.visualizer.transportConnectionVisualizer tags "\"\""
par MstClusteringNetwork.visualizer.transportConnectionVisualizer networkNodeVisualizerModule "\"^.networkNodeVisualizer\""
par MstClusteringNetwork.visualizer.transportConnectionVisualizer displayTransportConnections false
par MstClusteringNetwork.visualizer.transportConnectionVisualizer sourceNodeFilter "\"*\""
attr mutable ""
par MstClusteringNetwork.visualizer.transportConnectionVisualizer sourcePortFilter "\"*\""
attr mutable ""
par MstClusteringNetwork.visualizer.transportConnectionVisualizer destinationNodeFilter "\"*\""
attr mutable ""
par MstClusteringNetwork.visualizer.transportConnectionVisualizer destinationPortFilter "\"*\""
attr mutable ""
par MstClusteringNetwork.visualizer.transportConnectionVisualizer icon "\"misc/marker_s\""
par MstClusteringNetwork.visualizer.transportConnectionVisualizer iconColor "\"dark\""
par MstClusteringNetwork.visualizer.transportConnectionVisualizer labelFont "\"<default>\""
par MstClusteringNetwork.visualizer.transportConnectionVisualizer labelColor "\"black\""
par MstClusteringNetwork.visualizer.transportConnectionVisualizer placementHint "\"top\""
par MstClusteringNetwork.visualizer.transportConnectionVisualizer placementPriority 0
par MstClusteringNetwork.visualizer.transportConnectionVisualizer zIndex 4
par MstClusteringNetwork.visualizer.failureProtectionConfigurationVisualizer typename "\"inet.visualizer.canvas.configurator.FailureProtectionConfigurationCanvasVisualizer\""
par MstClusteringNetwork.visualizer.failureProtectionConfigurationVisualizer visualizationTargetModule "\"^.^\""
par MstClusteringNetwork.visualizer.failureProtectionConfigurationVisualizer visualizationSubjectModule "\"^.^\""
par MstClusteringNetwork.visualizer.failureProtectionConfigurationVisualizer tags "\"\""
par MstClusteringNetwork.visualizer.failureProtectionConfigurationVisualizer displayTrees false
par MstClusteringNetwork.visualizer.failureProtectionConfigurationVisualizer lineColor "\"dark\""
par MstClusteringNetwork.visualizer.failureProtectionConfigurationVisualizer lineStyle "\"solid\""
par MstClusteringNetwork.visualizer.failureProtectionConfigurationVisualizer lineWidth 3
par MstClusteringNetwork.visualizer.failureProtectionConfigurationVisualizer lineSmooth false
par MstClusteringNetwork.visualizer.failureProtectionConfigurationVisualizer lineShift 16
par MstClusteringNetwork.visualizer.failureProtectionConfigurationVisualizer lineShiftMode "\"normal\""
par MstClusteringNetwork.visualizer.failureProtectionConfigurationVisualizer lineContactSpacing 3
par MstClusteringNetwork.visualizer.failureProtectionConfigurationVisualizer lineContactMode "\"rectangular\""
attr enum circular,rectangular
par MstClusteringNetwork.visualizer.failureProtectionConfigurationVisualizer failureProtectionConfiguratorModule "\"failureProtectionConfigurator\""
par MstClusteringNetwork.visualizer.failureProtectionConfigurationVisualizer streamFilter "\"*\""
par MstClusteringNetwork.visualizer.failureProtectionConfigurationVisualizer zIndex 3
par MstClusteringNetwork.visualizer.streamRedundancyConfigurationVisualizer typename "\"inet.visualizer.canvas.configurator.StreamRedundancyConfigurationCanvasVisualizer\""
par MstClusteringNetwork.visualizer.streamRedundancyConfigurationVisualizer visualizationTargetModule "\"^.^\""
par MstClusteringNetwork.visualizer.streamRedundancyConfigurationVisualizer visualizationSubjectModule "\"^.^\""
par MstClusteringNetwork.visualizer.streamRedundancyConfigurationVisualizer tags "\"\""
par MstClusteringNetwork.visualizer.streamRedundancyConfigurationVisualizer displayTrees false
par MstClusteringNetwork.visualizer.streamRedundancyConfigurationVisualizer lineColor "\"dark\""
par MstClusteringNetwork.visualizer.streamRedundancyConfigurationVisualizer lineStyle "\"solid\""
par MstClusteringNetwork.visualizer.streamRedundancyConfigurationVisualizer lineWidth 3
par MstClusteringNetwork.visualizer.streamRedundancyConfigurationVisualizer lineSmooth false
par MstClusteringNetwork.visualizer.streamRedundancyConfigurationVisualizer lineShift 16
par MstClusteringNetwork.visualizer.streamRedundancyConfigurationVisualizer lineShiftMode "\"normal\""
par MstClusteringNetwork.visualizer.streamRedundancyConfigurationVisualizer lineContactSpacing 3
par MstClusteringNetwork.visualizer.streamRedundancyConfigurationVisualizer lineContactMode "\"rectangular\""
attr enum circular,rectangular
par MstClusteringNetwork.visualizer.streamRedundancyConfigurationVisualizer streamRedundancyConfiguratorModule "\"streamRedundancyConfigurator\""
par MstClusteringNetwork.visualizer.streamRedundancyConfigurationVisualizer streamFilter "\"*\""
par MstClusteringNetwork.visualizer.streamRedundancyConfigurationVisualizer zIndex 3
par MstClusteringNetwork.visualizer typename "\"inet.visualizer.canvas.integrated.IntegratedCanvasVisualizer\""
par MstClusteringNetwork.configurator typename "\"inet.networklayer.configurator.ipv4.Ipv4NetworkConfigurator\""
par MstClusteringNetwork.configurator minLinkWeight 0.001
par MstClusteringNetwork.configurator configureIsolatedNetworksSeparatly false
par MstClusteringNetwork.configurator config "<config>...</config> at content:1"
par MstClusteringNetwork.configurator assignAddresses true
par MstClusteringNetwork.configurator assignUniqueAddresses true
par MstClusteringNetwork.configurator assignDisjunctSubnetAddresses true
par MstClusteringNetwork.configurator addStaticRoutes true
par MstClusteringNetwork.configurator addDefaultRoutes true
par MstClusteringNetwork.configurator addSubnetRoutes true
par MstClusteringNetwork.configurator addDirectRoutes true
par MstClusteringNetwork.configurator optimizeRoutes true
par MstClusteringNetwork.configurator dumpTopology false
par MstClusteringNetwork.configurator dumpLinks false
par MstClusteringNetwork.configurator dumpAddresses false
par MstClusteringNetwork.configurator dumpRoutes false
par MstClusteringNetwork.configurator dumpConfig "\"\""
par MstClusteringNetwork.radioMedium.propagation typename "\"inet.physicallayer.wireless.common.propagation.ConstantSpeedPropagation\""
par MstClusteringNetwork.radioMedium.propagation propagationSpeed 2.99792e+08mps
attr unit mps
par MstClusteringNetwork.radioMedium.propagation ignoreMovementDuringTransmission true
par MstClusteringNetwork.radioMedium.propagation ignoreMovementDuringPropagation true
par MstClusteringNetwork.radioMedium.propagation ignoreMovementDuringReception true
scalar MstClusteringNetwork.radioMedium.propagation "Arrival computation count" 0
par MstClusteringNetwork.radioMedium.analogModel typename "\"inet.physicallayer.wireless.unitdisk.UnitDiskAnalogModel\""
par MstClusteringNetwork.radioMedium.pathLoss typename "\"inet.physicallayer.wireless.common.pathloss.FreeSpacePathLoss\""
par MstClusteringNetwork.radioMedium.pathLoss alpha 2
par MstClusteringNetwork.radioMedium.pathLoss systemLoss 0dB
attr unit dB
par MstClusteringNetwork.radioMedium.mediumLimitCache typename "\"inet.physicallayer.wireless.common.medium.MediumLimitCache\""
par MstClusteringNetwork.radioMedium.mediumLimitCache centerFrequency "nan Hz"
attr unit Hz
par MstClusteringNetwork.radioMedium.mediumLimitCache maxSpeed "nan mps"
attr unit mps
par MstClusteringNetwork.radioMedium.mediumLimitCache maxTransmissionPower "nan W"
attr unit W
par MstClusteringNetwork.radioMedium.mediumLimitCache minInterferencePower "nan dBm"
attr unit dBm
par MstClusteringNetwork.radioMedium.mediumLimitCache minReceptionPower "nan dBm"
attr unit dBm
par MstClusteringNetwork.radioMedium.mediumLimitCache maxAntennaGain 0dB
attr unit dB
par MstClusteringNetwork.radioMedium.mediumLimitCache minInterferenceTime 1e-12s
attr unit s
par MstClusteringNetwork.radioMedium.mediumLimitCache maxTransmissionDuration 0.01s
attr unit s
par MstClusteringNetwork.radioMedium.mediumLimitCache maxCommunicationRange "nan m"
attr unit m
par MstClusteringNetwork.radioMedium.mediumLimitCache maxInterferenceRange "nan m"
attr unit m
par MstClusteringNetwork.radioMedium.communicationCache typename "\"inet.physicallayer.wireless.common.communicationcache.VectorCommunicationCache\""
par MstClusteringNetwork.radioMedium typename "\"inet.physicallayer.wireless.unitdisk.UnitDiskRadioMedium\""
par MstClusteringNetwork.radioMedium physicalEnvironmentModule "\"physicalEnvironment\""
par MstClusteringNetwork.radioMedium signalAnalogRepresentation "\"unitDisk\""
attr enum unitDisk,scalar,dimensional
par MstClusteringNetwork.radioMedium rangeFilter "\"\""
par MstClusteringNetwork.radioMedium radioModeFilter false
par MstClusteringNetwork.radioMedium listeningFilter false
par MstClusteringNetwork.radioMedium macAddressFilter false
par MstClusteringNetwork.radioMedium recordTransmissionLog false
par MstClusteringNetwork.radioMedium recordReceptionLog false
scalar MstClusteringNetwork.radioMedium "transmission count" 0
scalar MstClusteringNetwork.radioMedium "signal send count" 0
scalar MstClusteringNetwork.radioMedium "reception computation count" 0
scalar MstClusteringNetwork.radioMedium "interference computation count" 40
scalar MstClusteringNetwork.radioMedium "reception decision computation count" 0
scalar MstClusteringNetwork.radioMedium "listening decision computation count" 40
scalar MstClusteringNetwork.radioMedium "reception cache hit" nan
attr unit %
scalar MstClusteringNetwork.radioMedium "interference cache hit" nan
attr unit %
scalar MstClusteringNetwork.radioMedium "noise cache hit" nan
attr unit %
scalar MstClusteringNetwork.radioMedium "snir cache hit" nan
attr unit %
scalar MstClusteringNetwork.radioMedium "reception decision cache hit" nan
attr unit %
scalar MstClusteringNetwork.radioMedium "reception result cache hit" nan
attr unit %
par MstClusteringNetwork.node[0].radioIn[0].channel typename "\"ned.IdealChannel\""
par MstClusteringNetwork.node[0].status typename "\"inet.common.lifecycle.NodeStatus\""
par MstClusteringNetwork.node[0].status initialStatus "\"UP\""
par MstClusteringNetwork.node[0].energyStorage typename "\"inet.power.storage.SimpleEpEnergyStorage\""
par MstClusteringNetwork.node[0].energyStorage nominalCapacity 10000J
attr unit J
par MstClusteringNetwork.node[0].energyStorage initialCapacity 7744.07J
attr unit J
par MstClusteringNetwork.node[0].energyStorage printCapacityStep 100J
attr unit J
par MstClusteringNetwork.node[0].energyStorage displayStringTextFormat "\"%c (%p)\""
scalar MstClusteringNetwork.node[0].energyStorage residualEnergyCapacity:last nan
attr interpolationmode linear
attr recordingmode last
attr source residualEnergyCapacityChanged
attr title "Residual energy capacity, last"
attr unit J
par MstClusteringNetwork.node[0].mobility typename "\"inet.mobility.single.MassMobility\""
par MstClusteringNetwork.node[0].mobility subjectModule "\"^\""
par MstClusteringNetwork.node[0].mobility coordinateSystemModule "\"\""
par MstClusteringNetwork.node[0].mobility displayStringTextFormat "\"p: %p\\nv: %v\""
attr mutable ""
par MstClusteringNetwork.node[0].mobility updateDisplayString true
par MstClusteringNetwork.node[0].mobility constraintAreaMinX 0m
attr unit m
par MstClusteringNetwork.node[0].mobility constraintAreaMinY 0m
attr unit m
par MstClusteringNetwork.node[0].mobility constraintAreaMinZ 0m
attr unit m
par MstClusteringNetwork.node[0].mobility constraintAreaMaxX 600m
attr unit m
par MstClusteringNetwork.node[0].mobility constraintAreaMaxY 600m
attr unit m
par MstClusteringNetwork.node[0].mobility constraintAreaMaxZ 0m
attr unit m
par MstClusteringNetwork.node[0].mobility updateInterval 0.1s
attr unit s
par MstClusteringNetwork.node[0].mobility faceForward true
par MstClusteringNetwork.node[0].mobility initialX 250.213m
attr unit m
par MstClusteringNetwork.node[0].mobility initialY 598.311m
attr unit m
par MstClusteringNetwork.node[0].mobility initialZ 0m
attr unit m
par MstClusteringNetwork.node[0].mobility initialMovementHeading 335.721deg
attr unit deg
par MstClusteringNetwork.node[0].mobility initialMovementElevation 0deg
attr unit deg
par MstClusteringNetwork.node[0].mobility initFromDisplayString false
par MstClusteringNetwork.node[0].mobility changeInterval "truncnormal(2s, 0.5s)"
attr unit s
par MstClusteringNetwork.node[0].mobility angleDelta "normal(0deg, 30deg)"
attr unit deg
par MstClusteringNetwork.node[0].mobility rotationAxisAngle 0deg
attr unit deg
par MstClusteringNetwork.node[0].mobility speed "truncnormal(10mps, 5mps)"
attr mutable ""
attr unit mps
par MstClusteringNetwork.node[0].interfaceTable typename "\"inet.networklayer.common.InterfaceTable\""
par MstClusteringNetwork.node[0].interfaceTable displayAddresses false
par MstClusteringNetwork.node[0].cb typename "\"inet.common.MessageDispatcher\""
par MstClusteringNetwork.node[0].cb displayStringTextFormat "\"processed %p pk (%l)\""
par MstClusteringNetwork.node[0].cb forwardServiceRegistration true
par MstClusteringNetwork.node[0].cb forwardProtocolRegistration true
par MstClusteringNetwork.node[0].bl typename "\"inet.common.MessageDispatcher\""
par MstClusteringNetwork.node[0].bl displayStringTextFormat "\"processed %p pk (%l)\""
par MstClusteringNetwork.node[0].bl forwardServiceRegistration true
par MstClusteringNetwork.node[0].bl forwardProtocolRegistration true
par MstClusteringNetwork.node[0].li typename "\"inet.common.MessageDispatcher\""
par MstClusteringNetwork.node[0].li displayStringTextFormat "\"processed %p pk (%l)\""
par MstClusteringNetwork.node[0].li forwardServiceRegistration true
par MstClusteringNetwork.node[0].li forwardProtocolRegistration true
par MstClusteringNetwork.node[0].lo[0].upperLayerIn.channel typename "\"ned.IdealChannel\""
par MstClusteringNetwork.node[0].lo[0].lo.upperLayerOut.channel typename "\"ned.IdealChannel\""
par MstClusteringNetwork.node[0].lo[0].lo typename "\"inet.linklayer.loopback.Loopback\""
par MstClusteringNetwork.node[0].lo[0].lo interfaceTableModule "\"MstClusteringNetwork.node[0].interfaceTable\""
par MstClusteringNetwork.node[0].lo[0].lo mtu 4470B
attr unit B
scalar MstClusteringNetwork.node[0].lo[0].lo rcvdPkFromHl:count 0
attr interpolationmode none
attr recordingmode count
attr source packetReceivedFromUpper
attr title "packets received from higher layer, count"
scalar MstClusteringNetwork.node[0].lo[0].lo rcvdPkFromHl:sum(packetBytes) 0
attr interpolationmode none
attr recordingmode sum(packetBytes)
attr source packetReceivedFromUpper
attr title "packets received from higher layer, sum(packetBytes)"
scalar MstClusteringNetwork.node[0].lo[0].lo passedUpPk:count 0
attr interpolationmode none
attr recordingmode count
attr source packetSentToUpper
attr title "packets passed to higher layer, count"
scalar MstClusteringNetwork.node[0].lo[0].lo passedUpPk:sum(packetBytes) 0
attr interpolationmode none
attr recordingmode sum(packetBytes)
attr source packetSentToUpper
attr title "packets passed to higher layer, sum(packetBytes)"
par MstClusteringNetwork.node[0].lo[0] typename "\"inet.linklayer.loopback.LoopbackInterface\""
par MstClusteringNetwork.node[0].lo[0] displayStringTextFormat "\"%a (%i)\\n%m\""
par MstClusteringNetwork.node[0].lo[0] recordPcap false
par MstClusteringNetwork.node[0].lo[0] numPcapRecorders 0
par MstClusteringNetwork.node[0].lo[0] interfaceTableModule "\"MstClusteringNetwork.node[0].interfaceTable\""
scalar MstClusteringNetwork.node[0].lo[0] packetDropInterfaceDown:count 0
attr interpolationmode none
attr recordingmode count
attr source packetDropReasonIsInterfaceDown(packetDropped)
attr title "packet drops: interface down, count"
scalar MstClusteringNetwork.node[0].lo[0] packetDropInterfaceDown:sum(packetBytes) 0
attr interpolationmode none
attr recordingmode sum(packetBytes)
attr source packetDropReasonIsInterfaceDown(packetDropped)
attr title "packet drops: interface down, sum(packetBytes)"
scalar MstClusteringNetwork.node[0].lo[0] packetDropNoCarrier:count 0
attr interpolationmode none
attr recordingmode count
attr source packetDropReasonIsNoCarrier(packetDropped)
attr title "packet drops: no carrier, count"
scalar MstClusteringNetwork.node[0].lo[0] packetDropNoCarrier:sum(packetBytes) 0
attr interpolationmode none
attr recordingmode sum(packetBytes)
attr source packetDropReasonIsNoCarrier(packetDropped)
attr title "packet drops: no carrier, sum(packetBytes)"
par MstClusteringNetwork.node[0].wlan[0].upperLayerIn.channel typename "\"ned.IdealChannel\""
par MstClusteringNetwork.node[0].wlan[0].radioIn.channel typename "\"ned.IdealChannel\""
par MstClusteringNetwork.node[0].wlan[0].mac.upperLayerOut.channel typename "\"ned.IdealChannel\""
par MstClusteringNetwork.node[0].wlan[0].queue typename "\"inet.queueing.queue.DropTailQueue\""
par MstClusteringNetwork.node[0].wlan[0].queue displayStringTextFormat "\"contains %p pk (%l) pushed %u\\npulled %o removed %r dropped %d\""
par MstClusteringNetwork.node[0].wlan[0].queue packetCapacity 100
par MstClusteringNetwork.node[0].wlan[0].queue dataCapacity -1b
attr unit b
par MstClusteringNetwork.node[0].wlan[0].queue dropperClass "\"inet::queueing::PacketAtCollectionEndDropper\""
par MstClusteringNetwork.node[0].wlan[0].queue comparatorClass "\"\""
par MstClusteringNetwork.node[0].wlan[0].queue bufferModule "\"\""
scalar MstClusteringNetwork.node[0].wlan[0].queue queueLength:last 0
attr autoWarmupFilter false
attr interpolationmode sample-hold
attr recordingmode last
attr source "warmup(atomic(constant0(packetPushEnded) + count(packetPushStarted) - count(packetPulled) - count(packetRemoved) - count(packetDropped)))"
attr title "queue length, last"
attr unit pk
scalar MstClusteringNetwork.node[0].wlan[0].queue queueLength:max 0
attr autoWarmupFilter false
attr interpolationmode sample-hold
attr recordingmode max
attr source "warmup(atomic(constant0(packetPushEnded) + count(packetPushStarted) - count(packetPulled) - count(packetRemoved) - count(packetDropped)))"
attr title "queue length, max"
attr unit pk
scalar MstClusteringNetwork.node[0].wlan[0].queue queueLength:timeavg -0
attr autoWarmupFilter false
attr interpolationmode sample-hold
attr recordingmode timeavg
attr source "warmup(atomic(constant0(packetPushEnded) + count(packetPushStarted) - count(packetPulled) - count(packetRemoved) - count(packetDropped)))"
attr title "queue length, timeavg"
attr unit pk
scalar MstClusteringNetwork.node[0].wlan[0].queue queueBitLength:last 0
attr autoWarmupFilter false
attr interpolationmode sample-hold
attr recordingmode last
attr source "warmup(atomic(constant0(packetPushEnded) + sum(packetLength(packetPushStarted)) - sum(packetLength(packetPulled)) - sum(packetLength(packetRemoved)) - sum(packetLength(packetDropped))))"
attr title "queue bit length, last"
attr unit b
scalar MstClusteringNetwork.node[0].wlan[0].queue queueBitLength:max 0
attr autoWarmupFilter false
attr interpolationmode sample-hold
attr recordingmode max
attr source "warmup(atomic(constant0(packetPushEnded) + sum(packetLength(packetPushStarted)) - sum(packetLength(packetPulled)) - sum(packetLength(packetRemoved)) - sum(packetLength(packetDropped))))"
attr title "queue bit length, max"
attr unit b
scalar MstClusteringNetwork.node[0].wlan[0].queue queueBitLength:timeavg -0
attr autoWarmupFilter false
attr interpolationmode sample-hold
attr recordingmode timeavg
attr source "warmup(atomic(constant0(packetPushEnded) + sum(packetLength(packetPushStarted)) - sum(packetLength(packetPulled)) - sum(packetLength(packetRemoved)) - sum(packetLength(packetDropped))))"
attr title "queue bit length, timeavg"
attr unit b
statistic MstClusteringNetwork.node[0].wlan[0].queue queueingTime:histogram
field count 0
field mean nan
field stddev nan
field min nan
field max nan
field sum 0
field sqrsum 0
attr interpolationmode none
attr recordingmode histogram
attr source queueingTime(packetPulled)
attr title "queueing times"
attr unit s
bin	-inf	0
bin	0	0
bin	1	0
scalar MstClusteringNetwork.node[0].wlan[0].queue outgoingPackets:count 0
attr recordingmode count
attr source packetPulled
attr title "outgoing packets, count"
attr unit pk
scalar MstClusteringNetwork.node[0].wlan[0].queue outgoingPacketLengths:sum 0
attr interpolationmode none
attr recordingmode sum
attr source packetLength(packetPulled)
attr title "outgoing packet lengths, sum"
attr unit b
statistic MstClusteringNetwork.node[0].wlan[0].queue outgoingPacketLengths:histogram
field count 0
field mean nan
field stddev nan
field min nan
field max nan
field sum 0
field sqrsum 0
attr interpolationmode none
attr recordingmode histogram
attr source packetLength(packetPulled)
attr title "outgoing packet lengths"
attr unit b
bin	-inf	0
bin	0	0
bin	1	0
statistic MstClusteringNetwork.node[0].wlan[0].queue flowQueueingTime:histogram
field count 0
field mean nan
field stddev nan
field min nan
field max nan
field sum 0
field sqrsum 0
attr interpolationmode none
attr recordingmode histogram
attr source queueingTime(demuxFlow(packetPulled))
attr title "flow queueing times"
attr unit s
bin	-inf	0
bin	0	0
bin	1	0
scalar MstClusteringNetwork.node[0].wlan[0].queue incomingPackets:count 0
attr recordingmode count
attr source packetPushStarted
attr title "incoming packets, count"
attr unit pk
scalar MstClusteringNetwork.node[0].wlan[0].queue incomingPacketLengths:sum 0
attr interpolationmode none
attr recordingmode sum
attr source packetLength(packetPushStarted)
attr title "incoming packet lengths, sum"
attr unit b
statistic MstClusteringNetwork.node[0].wlan[0].queue incomingPacketLengths:histogram
field count 0
field mean nan
field stddev nan
field min nan
field max nan
field sum 0
field sqrsum 0
attr interpolationmode none
attr recordingmode histogram
attr source packetLength(packetPushStarted)
attr title "incoming packet lengths"
attr unit b
bin	-inf	0
bin	0	0
bin	1	0
scalar MstClusteringNetwork.node[0].wlan[0].queue droppedPacketsQueueOverflow:count 0
attr interpolationmode none
attr recordingmode count
attr source packetDropReasonIsQueueOverflow(packetDropped)
attr title "dropped packets: queue overflow, count"
attr unit pk
scalar MstClusteringNetwork.node[0].wlan[0].queue droppedPacketLengthsQueueOverflow:sum 0
attr interpolationmode none
attr recordingmode sum
attr source packetLength(packetDropReasonIsQueueOverflow(packetDropped))
attr title "dropped packet lengths: queue overflow, sum"
attr unit b
par MstClusteringNetwork.node[0].wlan[0].mac typename "\"inet.linklayer.acking.AckingMac\""
par MstClusteringNetwork.node[0].wlan[0].mac interfaceTableModule "\"MstClusteringNetwork.node[0].interfaceTable\""
par MstClusteringNetwork.node[0].wlan[0].mac address "\"auto\""
attr mutable ""
par MstClusteringNetwork.node[0].wlan[0].mac bitrate 1e+06bps
attr unit bps
par MstClusteringNetwork.node[0].wlan[0].mac mtu 4470B
attr unit B
par MstClusteringNetwork.node[0].wlan[0].mac headerLength 23B
attr unit B
par MstClusteringNetwork.node[0].wlan[0].mac promiscuous false
par MstClusteringNetwork.node[0].wlan[0].mac fullDuplex true
par MstClusteringNetwork.node[0].wlan[0].mac useAck true
par MstClusteringNetwork.node[0].wlan[0].mac ackTimeout 0.1s
attr unit s
scalar MstClusteringNetwork.node[0].wlan[0].mac rcvdPkFromLl:count 0
attr interpolationmode none
attr recordingmode count
attr source packetReceivedFromLower
attr title "packets received from lower layer, count"
scalar MstClusteringNetwork.node[0].wlan[0].mac rcvdPkFromLl:sum(packetBytes) 0
attr interpolationmode none
attr recordingmode sum(packetBytes)
attr source packetReceivedFromLower
attr title "packets received from lower layer, sum(packetBytes)"
scalar MstClusteringNetwork.node[0].wlan[0].mac sentDownPk:count 0
attr interpolationmode none
attr recordingmode count
attr source packetSentToLower
attr title "packets sent to lower layer, count"
scalar MstClusteringNetwork.node[0].wlan[0].mac sentDownPk:sum(packetBytes) 0
attr interpolationmode none
attr recordingmode sum(packetBytes)
attr source packetSentToLower
attr title "packets sent to lower layer, sum(packetBytes)"
scalar MstClusteringNetwork.node[0].wlan[0].mac rcvdPkFromHl:count 0
attr interpolationmode none
attr recordingmode count
attr source packetReceivedFromUpper
attr title "packets received from higher layer, count"
scalar MstClusteringNetwork.node[0].wlan[0].mac rcvdPkFromHl:sum(packetBytes) 0
attr interpolationmode none
attr recordingmode sum(packetBytes)
attr source packetReceivedFromUpper
attr title "packets received from higher layer, sum(packetBytes)"
scalar MstClusteringNetwork.node[0].wlan[0].mac passedUpPk:count 0
attr interpolationmode none
attr recordingmode count
attr source packetSentToUpper
attr title "packets passed to higher layer, count"
scalar MstClusteringNetwork.node[0].wlan[0].mac passedUpPk:sum(packetBytes) 0
attr interpolationmode none
attr recordingmode sum(packetBytes)
attr source packetSentToUpper
attr title "packets passed to higher layer, sum(packetBytes)"
scalar MstClusteringNetwork.node[0].wlan[0].mac packetDropIncorrectlyReceived:count 0
attr interpolationmode none
attr recordingmode count
attr source packetDropReasonIsIncorrectlyReceived(packetDropped)
attr title "packet drop: incorrectly received, count"
scalar MstClusteringNetwork.node[0].wlan[0].mac packetDropIncorrectlyReceived:sum(packetBytes) 0
attr interpolationmode none
attr recordingmode sum(packetBytes)
attr source packetDropReasonIsIncorrectlyReceived(packetDropped)
attr title "packet drop: incorrectly received, sum(packetBytes)"
scalar MstClusteringNetwork.node[0].wlan[0].mac packetDropInterfaceDown:count 0
attr interpolationmode none
attr recordingmode count
attr source packetDropReasonIsInterfaceDown(packetDropped)
attr title "packet drop: interface down, count"
scalar MstClusteringNetwork.node[0].wlan[0].mac packetDropInterfaceDown:sum(packetBytes) 0
attr interpolationmode none
attr recordingmode sum(packetBytes)
attr source packetDropReasonIsInterfaceDown(packetDropped)
attr title "packet drop: interface down, sum(packetBytes)"
scalar MstClusteringNetwork.node[0].wlan[0].mac packetDropNotAddressedToUs:count 0
attr interpolationmode none
attr recordingmode count
attr source packetDropReasonIsNotAddressedToUs(packetDropped)
attr title "packet drop: not addressed to us, count"
scalar MstClusteringNetwork.node[0].wlan[0].mac packetDropNotAddressedToUs:sum(packetBytes) 0
attr interpolationmode none
attr recordingmode sum(packetBytes)
attr source packetDropReasonIsNotAddressedToUs(packetDropped)
attr title "packet drop: not addressed to us, sum(packetBytes)"
scalar MstClusteringNetwork.node[0].wlan[0].mac linkBroken:count 0
attr interpolationmode none
attr recordingmode count
attr source linkBroken
attr title "link break, count"
par MstClusteringNetwork.node[0].wlan[0].radio.antenna typename "\"inet.physicallayer.wireless.common.antenna.IsotropicAntenna\""
par MstClusteringNetwork.node[0].wlan[0].radio.antenna mobilityModule "\"^.^.^.mobility\""
par MstClusteringNetwork.node[0].wlan[0].radio.antenna numAntennas 1
par MstClusteringNetwork.node[0].wlan[0].radio.transmitter typename "\"inet.physicallayer.wireless.unitdisk.UnitDiskTransmitter\""
par MstClusteringNetwork.node[0].wlan[0].radio.transmitter preambleDuration 0s
attr unit s
par MstClusteringNetwork.node[0].wlan[0].radio.transmitter headerLength 96b
attr unit b
par MstClusteringNetwork.node[0].wlan[0].radio.transmitter bitrate 1e+06bps
attr unit bps
par MstClusteringNetwork.node[0].wlan[0].radio.transmitter communicationRange 300m
attr unit m
par MstClusteringNetwork.node[0].wlan[0].radio.transmitter interferenceRange 500m
attr unit m
par MstClusteringNetwork.node[0].wlan[0].radio.transmitter detectionRange 600m
attr unit m
par MstClusteringNetwork.node[0].wlan[0].radio.receiver typename "\"inet.physicallayer.wireless.unitdisk.UnitDiskReceiver\""
par MstClusteringNetwork.node[0].wlan[0].radio.receiver ignoreInterference false
par MstClusteringNetwork.node[0].wlan[0].radio.energyConsumer typename "\"inet.physicallayer.wireless.common.energyconsumer.StateBasedEpEnergyConsumer\""
par MstClusteringNetwork.node[0].wlan[0].radio.energyConsumer energySourceModule "\"MstClusteringNetwork.node[0].energyStorage\""
par MstClusteringNetwork.node[0].wlan[0].radio.energyConsumer offPowerConsumption 0W
attr unit W
par MstClusteringNetwork.node[0].wlan[0].radio.energyConsumer sleepPowerConsumption 0.001W
attr unit W
par MstClusteringNetwork.node[0].wlan[0].radio.energyConsumer switchingPowerConsumption 0.005W
attr unit W
par MstClusteringNetwork.node[0].wlan[0].radio.energyConsumer receiverIdlePowerConsumption 0.002W
attr unit W
par MstClusteringNetwork.node[0].wlan[0].radio.energyConsumer receiverBusyPowerConsumption 0.005W
attr unit W
par MstClusteringNetwork.node[0].wlan[0].radio.energyConsumer receiverReceivingPowerConsumption 0.01W
attr unit W
par MstClusteringNetwork.node[0].wlan[0].radio.energyConsumer receiverReceivingPreamblePowerConsumption 0.01W
attr unit W
par MstClusteringNetwork.node[0].wlan[0].radio.energyConsumer receiverReceivingHeaderPowerConsumption 0.01W
attr unit W
[...]
par MstClusteringNetwork.node[19].wlan[0] numPcapRecorders 0
par MstClusteringNetwork.node[19].wlan[0] interfaceTableModule "\"MstClusteringNetwork.node[19].interfaceTable\""
par MstClusteringNetwork.node[19].wlan[0] energySourceModule "\"MstClusteringNetwork.node[19].energyStorage\""
par MstClusteringNetwork.node[19].wlan[0] bitrate 1e+06bps
attr unit bps
scalar MstClusteringNetwork.node[19].wlan[0] packetDropInterfaceDown:count 0
attr interpolationmode none
attr recordingmode count
attr source packetDropReasonIsInterfaceDown(packetDropped)
attr title "packet drops: interface down, count"
scalar MstClusteringNetwork.node[19].wlan[0] packetDropInterfaceDown:sum(packetBytes) 0
attr interpolationmode none
attr recordingmode sum(packetBytes)
attr source packetDropReasonIsInterfaceDown(packetDropped)
attr title "packet drops: interface down, sum(packetBytes)"
scalar MstClusteringNetwork.node[19].wlan[0] packetDropNoCarrier:count 0
attr interpolationmode none
attr recordingmode count
attr source packetDropReasonIsNoCarrier(packetDropped)
attr title "packet drops: no carrier, count"
scalar MstClusteringNetwork.node[19].wlan[0] packetDropNoCarrier:sum(packetBytes) 0
attr interpolationmode none
attr recordingmode sum(packetBytes)
attr source packetDropReasonIsNoCarrier(packetDropped)
attr title "packet drops: no carrier, sum(packetBytes)"
par MstClusteringNetwork.node[19].ipv4.transportIn.channel typename "\"ned.IdealChannel\""
par MstClusteringNetwork.node[19].ipv4.up.out[0].channel typename "\"ned.IdealChannel\""
par MstClusteringNetwork.node[19].ipv4.lp.out[2].channel typename "\"ned.IdealChannel\""
par MstClusteringNetwork.node[19].ipv4.ifIn.channel typename "\"ned.IdealChannel\""
par MstClusteringNetwork.node[19].ipv4.configurator typename "\"inet.networklayer.configurator.ipv4.Ipv4NodeConfigurator\""
par MstClusteringNetwork.node[19].ipv4.configurator interfaceTableModule "\"MstClusteringNetwork.node[19].interfaceTable\""
par MstClusteringNetwork.node[19].ipv4.configurator routingTableModule "\"MstClusteringNetwork.node[19].ipv4.routingTable\""
par MstClusteringNetwork.node[19].ipv4.configurator networkConfiguratorModule "\"configurator\""
par MstClusteringNetwork.node[19].ipv4.configurator configureRoutingTable true
par MstClusteringNetwork.node[19].ipv4.routingTable typename "\"inet.networklayer.ipv4.Ipv4RoutingTable\""
par MstClusteringNetwork.node[19].ipv4.routingTable interfaceTableModule "\"MstClusteringNetwork.node[19].interfaceTable\""
par MstClusteringNetwork.node[19].ipv4.routingTable routerId "\"auto\""
par MstClusteringNetwork.node[19].ipv4.routingTable netmaskRoutes "\"*\""
par MstClusteringNetwork.node[19].ipv4.routingTable forwarding true
par MstClusteringNetwork.node[19].ipv4.routingTable multicastForwarding false
par MstClusteringNetwork.node[19].ipv4.routingTable useAdminDist false
par MstClusteringNetwork.node[19].ipv4.routingTable routingFile "\"\""
par MstClusteringNetwork.node[19].ipv4.natTable typename "\"inet.networklayer.ipv4.Ipv4NatTable\""
par MstClusteringNetwork.node[19].ipv4.natTable networkProtocolModule "\"^.ip\""
par MstClusteringNetwork.node[19].ipv4.natTable config "<config/> at content:1"
par MstClusteringNetwork.node[19].ipv4.up typename "\"inet.common.MessageDispatcher\""
par MstClusteringNetwork.node[19].ipv4.up displayStringTextFormat "\"processed %p pk (%l)\""
par MstClusteringNetwork.node[19].ipv4.up forwardServiceRegistration true
par MstClusteringNetwork.node[19].ipv4.up forwardProtocolRegistration true
par MstClusteringNetwork.node[19].ipv4.igmp typename "\"inet.networklayer.ipv4.Igmpv2\""
par MstClusteringNetwork.node[19].ipv4.igmp interfaceTableModule "\"MstClusteringNetwork.node[19].interfaceTable\""
par MstClusteringNetwork.node[19].ipv4.igmp routingTableModule "\"MstClusteringNetwork.node[19].ipv4.routingTable\""
par MstClusteringNetwork.node[19].ipv4.igmp crcMode "\"declared\""
attr enum declared,computed
par MstClusteringNetwork.node[19].ipv4.igmp enabled true
par MstClusteringNetwork.node[19].ipv4.igmp robustnessVariable 2
par MstClusteringNetwork.node[19].ipv4.igmp queryInterval 125s
attr unit s
par MstClusteringNetwork.node[19].ipv4.igmp queryResponseInterval 10s
attr unit s
par MstClusteringNetwork.node[19].ipv4.igmp groupMembershipInterval 260s
attr unit s
par MstClusteringNetwork.node[19].ipv4.igmp otherQuerierPresentInterval 255s
attr unit s
par MstClusteringNetwork.node[19].ipv4.igmp startupQueryInterval 31.25s
attr unit s
par MstClusteringNetwork.node[19].ipv4.igmp startupQueryCount 2
par MstClusteringNetwork.node[19].ipv4.igmp lastMemberQueryInterval 1s
attr unit s
par MstClusteringNetwork.node[19].ipv4.igmp lastMemberQueryCount 2
par MstClusteringNetwork.node[19].ipv4.igmp unsolicitedReportInterval 10s
attr unit s
par MstClusteringNetwork.node[19].ipv4.icmp typename "\"inet.networklayer.ipv4.Icmp\""
par MstClusteringNetwork.node[19].ipv4.icmp interfaceTableModule "\"MstClusteringNetwork.node[19].interfaceTable\""
par MstClusteringNetwork.node[19].ipv4.icmp routingTableModule "\"MstClusteringNetwork.node[19].ipv4.routingTable\""
par MstClusteringNetwork.node[19].ipv4.icmp crcMode "\"declared\""
attr enum declared,computed
attr mutable ""
par MstClusteringNetwork.node[19].ipv4.icmp quoteLength 8B
attr mutable ""
attr unit B
par MstClusteringNetwork.node[19].ipv4.mp typename "\"inet.common.MessageDispatcher\""
par MstClusteringNetwork.node[19].ipv4.mp displayStringTextFormat "\"processed %p pk (%l)\""
par MstClusteringNetwork.node[19].ipv4.mp forwardServiceRegistration true
par MstClusteringNetwork.node[19].ipv4.mp forwardProtocolRegistration true
par MstClusteringNetwork.node[19].ipv4.ip typename "\"inet.networklayer.ipv4.Ipv4\""
par MstClusteringNetwork.node[19].ipv4.ip interfaceTableModule "\"MstClusteringNetwork.node[19].interfaceTable\""
par MstClusteringNetwork.node[19].ipv4.ip routingTableModule "\"MstClusteringNetwork.node[19].ipv4.routingTable\""
par MstClusteringNetwork.node[19].ipv4.ip arpModule "\"MstClusteringNetwork.node[19].ipv4.arp\""
par MstClusteringNetwork.node[19].ipv4.ip icmpModule "\"MstClusteringNetwork.node[19].ipv4.icmp\""
par MstClusteringNetwork.node[19].ipv4.ip crcMode "\"declared\""
attr enum declared,computed
par MstClusteringNetwork.node[19].ipv4.ip timeToLive 32
par MstClusteringNetwork.node[19].ipv4.ip multicastTimeToLive 32
par MstClusteringNetwork.node[19].ipv4.ip fragmentTimeout 60s
attr unit s
par MstClusteringNetwork.node[19].ipv4.ip limitedBroadcast false
par MstClusteringNetwork.node[19].ipv4.ip directBroadcastInterfaces "\"\""
scalar MstClusteringNetwork.node[19].ipv4.ip packetDropAddressResolutionFailed:count 0
attr interpolationmode none
attr recordingmode count
attr source packetDropReasonIsAddressResolutionFailed(packetDropped)
attr title "packet drop: address resolution failed, count"
scalar MstClusteringNetwork.node[19].ipv4.ip packetDropAddressResolutionFailed:sum(packetBytes) 0
attr interpolationmode none
attr recordingmode sum(packetBytes)
attr source packetDropReasonIsAddressResolutionFailed(packetDropped)
attr title "packet drop: address resolution failed, sum(packetBytes)"
scalar MstClusteringNetwork.node[19].ipv4.ip packetDropHopLimitReached:count 0
attr interpolationmode none
attr recordingmode count
attr source packetDropReasonIsHopLimitReached(packetDropped)
attr title "packet drop: hop limit reached, count"
scalar MstClusteringNetwork.node[19].ipv4.ip packetDropHopLimitReached:sum(packetBytes) 0
attr interpolationmode none
attr recordingmode sum(packetBytes)
attr source packetDropReasonIsHopLimitReached(packetDropped)
attr title "packet drop: hop limit reached, sum(packetBytes)"
scalar MstClusteringNetwork.node[19].ipv4.ip packetDropForwardingDisabled:count 0
attr interpolationmode none
attr recordingmode count
attr source packetDropReasonIsForwardingDisabled(packetDropped)
attr title "packet drop: forwarding disabled, count"
scalar MstClusteringNetwork.node[19].ipv4.ip packetDropForwardingDisabled:sum(packetBytes) 0
attr interpolationmode none
attr recordingmode sum(packetBytes)
attr source packetDropReasonIsForwardingDisabled(packetDropped)
attr title "packet drop: forwarding disabled, sum(packetBytes)"
scalar MstClusteringNetwork.node[19].ipv4.ip packetDropNoInterfaceFound:count 0
attr interpolationmode none
attr recordingmode count
attr source packetDropReasonIsNoInterfaceFound(packetDropped)
attr title "packet drop: no interface found, count"
scalar MstClusteringNetwork.node[19].ipv4.ip packetDropNoInterfaceFound:sum(packetBytes) 0
attr interpolationmode none
attr recordingmode sum(packetBytes)
attr source packetDropReasonIsNoInterfaceFound(packetDropped)
attr title "packet drop: no interface found, sum(packetBytes)"
scalar MstClusteringNetwork.node[19].ipv4.ip packetDropNoRouteFound:count 0
attr interpolationmode none
attr recordingmode count
attr source packetDropReasonIsNoRouteFound(packetDropped)
attr title "packet drop: no route found, count"
scalar MstClusteringNetwork.node[19].ipv4.ip packetDropNoRouteFound:sum(packetBytes) 0
attr interpolationmode none
attr recordingmode sum(packetBytes)
attr source packetDropReasonIsNoRouteFound(packetDropped)
attr title "packet drop: no route found, sum(packetBytes)"
scalar MstClusteringNetwork.node[19].ipv4.ip packetDropUndefined:count 0
attr interpolationmode none
attr recordingmode count
attr source packetDropReasonIsUndefined(packetDropped)
attr title "packet drop: undefined, count"
scalar MstClusteringNetwork.node[19].ipv4.ip packetDropUndefined:sum(packetBytes) 0
attr interpolationmode none
attr recordingmode sum(packetBytes)
attr source packetDropReasonIsUndefined(packetDropped)
attr title "packet drop: undefined, sum(packetBytes)"
par MstClusteringNetwork.node[19].ipv4.arp typename "\"inet.networklayer.arp.ipv4.GlobalArp\""
par MstClusteringNetwork.node[19].ipv4.arp interfaceTableModule "\"MstClusteringNetwork.node[19].interfaceTable\""
par MstClusteringNetwork.node[19].ipv4.arp addressType "\"ipv4\""
attr enum ipv4,ipv6,mac,moduleid,modulepath
par MstClusteringNetwork.node[19].ipv4.lp typename "\"inet.common.MessageDispatcher\""
par MstClusteringNetwork.node[19].ipv4.lp displayStringTextFormat "\"processed %p pk (%l)\""
par MstClusteringNetwork.node[19].ipv4.lp forwardServiceRegistration true
par MstClusteringNetwork.node[19].ipv4.lp forwardProtocolRegistration true
par MstClusteringNetwork.node[19].ipv4 typename "\"inet.networklayer.ipv4.Ipv4NetworkLayer\""
par MstClusteringNetwork.node[19].ipv4 forwarding true
par MstClusteringNetwork.node[19].ipv4 multicastForwarding false
par MstClusteringNetwork.node[19].ipv4 interfaceTableModule "\"MstClusteringNetwork.node[19].interfaceTable\""
par MstClusteringNetwork.node[19].ipv4 displayStringTextFormat "\"%i\""
par MstClusteringNetwork.node[19].nl typename "\"inet.common.MessageDispatcher\""
par MstClusteringNetwork.node[19].nl displayStringTextFormat "\"processed %p pk (%l)\""
par MstClusteringNetwork.node[19].nl forwardServiceRegistration true
par MstClusteringNetwork.node[19].nl forwardProtocolRegistration true
par MstClusteringNetwork.node[19].udp typename "\"inet.transportlayer.udp.Udp\""
par MstClusteringNetwork.node[19].udp interfaceTableModule "\"MstClusteringNetwork.node[19].interfaceTable\""
par MstClusteringNetwork.node[19].udp icmpModule "\"^.ipv4.icmp\""
par MstClusteringNetwork.node[19].udp icmpv6Module "\"^.ipv6.icmpv6\""
par MstClusteringNetwork.node[19].udp crcMode "\"declared\""
attr enum disabled,declared,computed
par MstClusteringNetwork.node[19].udp defaultMulticastLoop true
scalar MstClusteringNetwork.node[19].udp packetReceived:count 0
attr interpolationmode none
attr recordingmode count
attr source packetReceived
attr title "packets received, count"
scalar MstClusteringNetwork.node[19].udp packetReceived:sum(packetBytes) 0
attr interpolationmode none
attr recordingmode sum(packetBytes)
attr source packetReceived
attr title "packets received, sum(packetBytes)"
scalar MstClusteringNetwork.node[19].udp packetSent:count 0
attr interpolationmode none
attr recordingmode count
attr source packetSent
attr title "packets sent, count"
scalar MstClusteringNetwork.node[19].udp packetSent:sum(packetBytes) 0
attr interpolationmode none
attr recordingmode sum(packetBytes)
attr source packetSent
attr title "packets sent, sum(packetBytes)"
scalar MstClusteringNetwork.node[19].udp passedUpPk:count 0
attr interpolationmode none
attr recordingmode count
attr source packetSentToUpper
attr title "packets passed up, count"
scalar MstClusteringNetwork.node[19].udp droppedPkWrongPort:count 0
attr interpolationmode none
attr recordingmode count
attr source packetDropReasonIsNoPortFound(packetDropped)
attr title "packets dropped (wrong port), count"
scalar MstClusteringNetwork.node[19].udp droppedPkBadChecksum:count 0
attr interpolationmode none
attr recordingmode count
attr source packetDropReasonIsIncorrectlyReceived(packetDropped)
attr title "packets dropped (checksum error), count"
par MstClusteringNetwork.node[19].tcp typename "\"inet.transportlayer.tcp.Tcp\""
par MstClusteringNetwork.node[19].tcp crcMode "\"declared\""
attr enum declared,computed
par MstClusteringNetwork.node[19].tcp advertisedWindow 7504
par MstClusteringNetwork.node[19].tcp delayedAcksEnabled false
par MstClusteringNetwork.node[19].tcp nagleEnabled true
par MstClusteringNetwork.node[19].tcp limitedTransmitEnabled false
par MstClusteringNetwork.node[19].tcp increasedIWEnabled false
par MstClusteringNetwork.node[19].tcp sackSupport false
par MstClusteringNetwork.node[19].tcp windowScalingSupport false
par MstClusteringNetwork.node[19].tcp windowScalingFactor -1
par MstClusteringNetwork.node[19].tcp timestampSupport false
par MstClusteringNetwork.node[19].tcp mss 536
par MstClusteringNetwork.node[19].tcp msl 120s
attr unit s
par MstClusteringNetwork.node[19].tcp tcpAlgorithmClass "\"TcpReno\""
par MstClusteringNetwork.node[19].tcp useDataNotification false
par MstClusteringNetwork.node[19].tcp dupthresh 3
par MstClusteringNetwork.node[19].tcp initialSsthresh 4294967295
par MstClusteringNetwork.node[19].tcp stopOperationExtraTime 0s
attr unit s
par MstClusteringNetwork.node[19].tcp stopOperationTimeout 2s
attr unit s
par MstClusteringNetwork.node[19].tcp ecnWillingness false
par MstClusteringNetwork.node[19].tcp dctcpGamma 0.0625
par MstClusteringNetwork.node[19].tn typename "\"inet.common.MessageDispatcher\""
par MstClusteringNetwork.node[19].tn displayStringTextFormat "\"processed %p pk (%l)\""
par MstClusteringNetwork.node[19].tn forwardServiceRegistration true
par MstClusteringNetwork.node[19].tn forwardProtocolRegistration true
par MstClusteringNetwork.node[19].at typename "\"inet.common.MessageDispatcher\""
par MstClusteringNetwork.node[19].at displayStringTextFormat "\"processed %p pk (%l)\""
par MstClusteringNetwork.node[19].at forwardServiceRegistration true
par MstClusteringNetwork.node[19].at forwardProtocolRegistration true
par MstClusteringNetwork.node[19].mstClustering typename "\"mstclustering.MstClustering\""
par MstClusteringNetwork.node[19].mstClustering interfaceTableModule "\"MstClusteringNetwork.node[19].interfaceTable\""
par MstClusteringNetwork.node[19].mstClustering helloInterval 1s
attr unit s
par MstClusteringNetwork.node[19].mstClustering clusterTimeout 5s
attr unit s
par MstClusteringNetwork.node[19].mstClustering mstUpdateInterval 2s
attr unit s
par MstClusteringNetwork.node[19].mstClustering enableDynamicMst true
par MstClusteringNetwork.node[19].mstClustering maxClusters 5
par MstClusteringNetwork.node[19].mstClustering maxClusterSize 10
par MstClusteringNetwork.node[19].mstClustering clusterThreshold 0.5
par MstClusteringNetwork.node[19].mstClustering edgeWeightAlpha 0.5
par MstClusteringNetwork.node[19].mstClustering edgeWeightBeta 0.3
par MstClusteringNetwork.node[19].mstClustering edgeWeightGamma 0.2
par MstClusteringNetwork.node[19].mstClustering communicationRange 300m
attr unit m
par MstClusteringNetwork.node[19].mstClustering localPort 9999
par MstClusteringNetwork.node[19].mstClustering destPort 9999
scalar MstClusteringNetwork.node[19].mstClustering mstEdgeCount:mean nan
attr recordingmode mean
attr title "MST Edge Count, mean"
scalar MstClusteringNetwork.node[19].mstClustering numClusters:mean nan
attr recordingmode mean
attr title "Number of Clusters, mean"
scalar MstClusteringNetwork.node[19].mstClustering energy:mean nan
attr recordingmode mean
attr title "Remaining Energy, mean"
scalar MstClusteringNetwork.node[19].mstClustering energy:min nan
attr recordingmode min
attr title "Remaining Energy, min"
scalar MstClusteringNetwork.node[19].mstClustering numNeighbors:mean nan
attr recordingmode mean
attr title "Number of Neighbors, mean"
statistic MstClusteringNetwork.node[19].mstClustering numNeighbors:histogram
field count 0
field mean nan
field stddev nan
field min nan
field max nan
field sum 0
field sqrsum 0
attr recordingmode histogram
attr title "Number of Neighbors"
bin	-inf	0
bin	0	0
bin	1	0
scalar MstClusteringNetwork.node[19].mstClustering clusterStability:mean nan
attr recordingmode mean
attr title "Cluster Stability Time, mean"
scalar MstClusteringNetwork.node[19].mstClustering clusterStability:max nan
attr recordingmode max
attr title "Cluster Stability Time, max"
scalar MstClusteringNetwork.node[19].mstClustering controlOverhead:count 0
attr recordingmode count
attr title "Control Overhead, count"
scalar MstClusteringNetwork.node[19].mstClustering reClusteringCount:last nan
attr recordingmode last
attr title "Re-clustering Count, last"
scalar MstClusteringNetwork.node[19].mstClustering isClusterHead:mean nan
attr recordingmode mean
attr title "Is Cluster Head, mean"
scalar MstClusteringNetwork.node[19].mstClustering clusterSize:mean nan
attr recordingmode mean
attr title "Cluster Size, mean"
statistic MstClusteringNetwork.node[19].mstClustering clusterSize:histogram
field count 0
field mean nan
field stddev nan
field min nan
field max nan
field sum 0
field sqrsum 0
attr recordingmode histogram
attr title "Cluster Size"
bin	-inf	0
bin	0	0
bin	1	0
statistic MstClusteringNetwork.node[19].mstClustering clusterId:histogram
field count 0
field mean nan
field stddev nan
field min nan
field max nan
field sum 0
field sqrsum 0
attr recordingmode histogram
attr title "Cluster ID"
bin	-inf	0
bin	0	0
bin	1	0
par MstClusteringNetwork.node[19] typename "\"mstclustering.MstClusteringNode\""
par MstClusteringNetwork.node[19] hasStatus true
par MstClusteringNetwork.node[19] osgModel "\"\""
par MstClusteringNetwork.node[19] osgModelColor "\"\""
par MstClusteringNetwork.node[19] canvasImage "\"\""
par MstClusteringNetwork.node[19] canvasImageColor "\"\""
par MstClusteringNetwork.node[19] recordPcap false
par MstClusteringNetwork.node[19] numPcapRecorders 0
par MstClusteringNetwork.node[19] numLoInterfaces 1
par MstClusteringNetwork.node[19] numWlanInterfaces 1
par MstClusteringNetwork.node[19] numEthInterfaces 0
par MstClusteringNetwork.node[19] numPppInterfaces 0
par MstClusteringNetwork.node[19] numTunInterfaces 0
par MstClusteringNetwork.node[19] numVirtInterfaces 0
par MstClusteringNetwork.node[19] fcsMode "\"declared\""
attr enum declared,computed
par MstClusteringNetwork.node[19] hasIpv4 true
par MstClusteringNetwork.node[19] hasIpv6 false
par MstClusteringNetwork.node[19] hasGn false
par MstClusteringNetwork.node[19] forwarding true
par MstClusteringNetwork.node[19] multicastForwarding false
par MstClusteringNetwork.node[19] hasUdp true
par MstClusteringNetwork.node[19] hasTcp true
par MstClusteringNetwork.node[19] hasSctp false
par MstClusteringNetwork.node[19] numApps 0
par MstClusteringNetwork typename "\"mstclustering.MstClusteringNetwork\""
par MstClusteringNetwork numNodes 20
par MstClusteringNetwork playgroundSizeX 600m
attr unit m
par MstClusteringNetwork playgroundSizeY 600m
attr unit m
par MstClusteringNetwork playgroundSizeZ 0m
attr unit m
par MstClusteringNetwork hasVisualizer true
par MstClusteringNetwork hasPhysicalEnvironment false

