file 249702 1766946515                                          
version 3
run General-0-20251228-21:27:49-71527
attr configname General
attr datetime 20251228-21:27:49
attr datetimef 20251228-212749
attr experiment General
attr inifile omnetpp.ini
attr iterationvars "$playgroundX=1000m, $playgroundY=1000m"
attr iterationvarsd playgroundX=1000m/playgroundY=1000m
attr iterationvarsf playgroundX=1000m,playgroundY=1000m-
attr measurement "$playgroundX=1000m, $playgroundY=1000m"
attr network mstclustering.MstClusteringNetwork
attr processid 71527
attr repetition 0
attr replication #0
attr resultdir results
attr runnumber 0
attr seedset 0
itervar playgroundX 1000m
itervar playgroundY 1000m
config image-path ../inet4.5/images
config description "MST-based Clustering - Base Configuration"
config network mstclustering.MstClusteringNetwork
config sim-time-limit 300s
config warmup-period 10s
config num-rngs 3
config **.mobility.rng-0 1
config **.wlan[*].mac.rng-0 2
config record-eventlog false
config **.vector-recording true
config **.scalar-recording true
config *.numNodes 20
config *.playgroundSizeX 1000m
config *.playgroundSizeY 1000m
config *.configurator.config "xml(\"<config><interface hosts='**' address='10.x.x.x' netmask='255.x.x.x'/><autoroute metric='hopCount'/></config>\")"
config *.node[*].ipv4.arp.typename GlobalArp
config *.node[*].mstClustering.helloInterval 1s
config *.node[*].mstClustering.mstUpdateInterval 2s
config *.node[*].mstClustering.clusterTimeout 5s
config *.node[*].mstClustering.enableDynamicMst true
config *.node[*].mstClustering.maxClusters 5
config *.node[*].mstClustering.maxClusterSize 10
config *.node[*].mstClustering.clusterThreshold 0.5
config *.node[*].mstClustering.edgeWeightAlpha 0.5
config *.node[*].mstClustering.edgeWeightBeta 0.3
config *.node[*].mstClustering.edgeWeightGamma 0.2
config *.node[*].mstClustering.communicationRange 250m
config *.node[*].mobility.typename MassMobility
config *.node[*].mobility.constraintAreaMinX 0m
config *.node[*].mobility.constraintAreaMinY 0m
config *.node[*].mobility.constraintAreaMinZ 0m
config *.node[*].mobility.constraintAreaMaxX 1000m
config *.node[*].mobility.constraintAreaMaxY 1000m
config *.node[*].mobility.constraintAreaMaxZ 0m
config *.node[*].mobility.initFromDisplayString false
config *.node[*].mobility.changeInterval "truncnormal(2s, 0.5s)"
config *.node[*].mobility.angleDelta "normal(0deg, 30deg)"
config *.node[*].mobility.speed "truncnormal(10mps, 5mps)"
config *.radioMedium.typename UnitDiskRadioMedium
config *.node[*].wlan[*].typename AckingWirelessInterface
config *.node[*].wlan[*].radio.typename UnitDiskRadio
config *.node[*].wlan[*].radio.transmitter.communicationRange 250m
config *.node[*].wlan[*].radio.transmitter.interferenceRange 500m
config *.node[*].wlan[*].radio.transmitter.detectionRange 600m
config *.node[*].wlan[*].radio.receiver.ignoreInterference false
config *.node[*].wlan[*].mac.headerLength 23B
config *.node[*].**.bitrate 1Mbps
config *.node[*].hasStatus true
config *.node[*].energyStorage.typename SimpleEpEnergyStorage
config *.node[*].energyStorage.nominalCapacity 10000J
config *.node[*].energyStorage.initialCapacity "uniform(5000J, 10000J)"
config *.node[*].wlan[*].radio.energyConsumer.typename StateBasedEpEnergyConsumer
config *.node[*].wlan[*].radio.energyConsumer.offPowerConsumption 0mW
config *.node[*].wlan[*].radio.energyConsumer.sleepPowerConsumption 1mW
config *.node[*].wlan[*].radio.energyConsumer.switchingPowerConsumption 5mW
config *.node[*].wlan[*].radio.energyConsumer.receiverIdlePowerConsumption 2mW
config *.node[*].wlan[*].radio.energyConsumer.receiverBusyPowerConsumption 5mW
config *.node[*].wlan[*].radio.energyConsumer.receiverReceivingPowerConsumption 10mW
config *.node[*].wlan[*].radio.energyConsumer.transmitterIdlePowerConsumption 2mW
config *.node[*].wlan[*].radio.energyConsumer.transmitterTransmittingPowerConsumption 100mW
config *.hasVisualizer true
config *.visualizer.*.mobilityVisualizer.displayMobility true
config *.visualizer.*.mobilityVisualizer.displayPositions true
config *.visualizer.*.mobilityVisualizer.displayOrientations false
config *.visualizer.*.mobilityVisualizer.displayVelocities true
config *.visualizer.*.mobilityVisualizer.displayMovementTrails true
config *.visualizer.*.mediumVisualizer.displaySignals false
config *.visualizer.*.mediumVisualizer.displayTransmissions false
config *.visualizer.*.mediumVisualizer.displayReceptions false
config *.visualizer.*.physicalLinkVisualizer.displayLinks true
config *.visualizer.*.physicalLinkVisualizer.lineColor "\"dark\""
config *.visualizer.*.dataLinkVisualizer.displayLinks true
config *.visualizer.*.networkRouteVisualizer.displayRoutes true

vector 0 MstClusteringNetwork.node[0].energyStorage powerConsumption:vector ETV
attr interpolationmode sample-hold
attr recordingmode vector
attr source powerConsumptionChanged
attr title "Power consumption"
attr unit W
vector 1 MstClusteringNetwork.node[0].energyStorage powerGeneration:vector ETV
attr interpolationmode sample-hold
attr recordingmode vector
attr source powerGenerationChanged
attr title "Power generation"
attr unit W
vector 2 MstClusteringNetwork.node[0].energyStorage residualEnergyCapacity:vector ETV
attr interpolationmode linear
attr recordingmode vector
attr source residualEnergyCapacityChanged
attr title "Residual energy capacity"
attr unit J
vector 3 MstClusteringNetwork.node[0].lo[0].lo rcvdPkFromHl:vector(packetBytes) ETV
attr interpolationmode none
attr recordingmode vector(packetBytes)
attr source packetReceivedFromUpper
attr title "packets received from higher layer, packetBytes"
vector 4 MstClusteringNetwork.node[0].lo[0].lo passedUpPk:vector(packetBytes) ETV
attr interpolationmode none
attr recordingmode vector(packetBytes)
attr source packetSentToUpper
attr title "packets passed to higher layer, packetBytes"
vector 5 MstClusteringNetwork.node[0].lo[0] packetDropInterfaceDown:vector(packetBytes) ETV
attr interpolationmode none
attr recordingmode vector(packetBytes)
attr source packetDropReasonIsInterfaceDown(packetDropped)
attr title "packet drops: interface down, packetBytes"
vector 6 MstClusteringNetwork.node[0].lo[0] packetDropNoCarrier:vector(packetBytes) ETV
attr interpolationmode none
attr recordingmode vector(packetBytes)
attr source packetDropReasonIsNoCarrier(packetDropped)
attr title "packet drops: no carrier, packetBytes"
vector 7 MstClusteringNetwork.node[0].wlan[0].queue queueLength:vector ETV
attr autoWarmupFilter false
attr interpolationmode sample-hold
attr recordingmode vector
attr source "warmup(atomic(constant0(packetPushEnded) + count(packetPushStarted) - count(packetPulled) - count(packetRemoved) - count(packetDropped)))"
attr title "queue length"
attr unit pk
vector 8 MstClusteringNetwork.node[0].wlan[0].queue queueBitLength:vector ETV
attr autoWarmupFilter false
attr interpolationmode sample-hold
attr recordingmode vector
attr source "warmup(atomic(constant0(packetPushEnded) + sum(packetLength(packetPushStarted)) - sum(packetLength(packetPulled)) - sum(packetLength(packetRemoved)) - sum(packetLength(packetDropped))))"
attr title "queue bit length"
attr unit b
vector 9 MstClusteringNetwork.node[0].wlan[0].queue queueingTime:vector ETV
attr interpolationmode none
attr recordingmode vector
attr source queueingTime(packetPulled)
attr title "queueing times"
attr unit s
vector 10 MstClusteringNetwork.node[0].wlan[0].queue incomingPacketLengths:vector ETV
attr interpolationmode none
attr recordingmode vector
attr source packetLength(packetPushStarted)
attr title "incoming packet lengths"
attr unit b
vector 11 MstClusteringNetwork.node[0].wlan[0].queue incomingDataRate:vector ETV
attr interpolationmode linear
attr recordingmode vector
attr source throughput(packetPushStarted)
attr title "incoming datarate"
attr unit bps
vector 12 MstClusteringNetwork.node[0].wlan[0].queue outgoingPacketLengths:vector ETV
attr interpolationmode none
attr recordingmode vector
attr source packetLength(packetPulled)
attr title "outgoing packet lengths"
attr unit b
vector 13 MstClusteringNetwork.node[0].wlan[0].queue outgoingDataRate:vector ETV
attr interpolationmode linear
attr recordingmode vector
attr source throughput(packetPulled)
attr title "outgoing datarate"
attr unit bps
vector 14 MstClusteringNetwork.node[0].wlan[0].queue droppedPacketLengthsQueueOverflow:vector ETV
attr interpolationmode none
attr recordingmode vector
attr source packetLength(packetDropReasonIsQueueOverflow(packetDropped))
attr title "dropped packet lengths: queue overflow"
attr unit b
vector 15 MstClusteringNetwork.node[0].wlan[0].queue flowQueueingTime:vector ETV
attr interpolationmode none
attr recordingmode vector
attr source queueingTime(demuxFlow(packetPulled))
attr title "flow queueing times"
attr unit s
vector 16 MstClusteringNetwork.node[0].wlan[0].queue flowIncomingDataRate:vector ETV
attr interpolationmode linear
attr recordingmode vector
attr source throughput(flowPacketLength(demuxFlow(packetPushStarted)))
attr title "flow specific incoming data rate"
attr unit bps
vector 17 MstClusteringNetwork.node[0].wlan[0].queue flowOutgoingDataRate:vector ETV
attr interpolationmode linear
attr recordingmode vector
attr source throughput(flowPacketLength(demuxFlow(packetPulled)))
attr title "flow specific outgoing data rate"
attr unit bps
vector 18 MstClusteringNetwork.node[0].wlan[0].mac passedUpPk:vector(packetBytes) ETV
attr interpolationmode none
attr recordingmode vector(packetBytes)
attr source packetSentToUpper
attr title "packets passed to higher layer, packetBytes"
vector 19 MstClusteringNetwork.node[0].wlan[0].mac sentDownPk:vector(packetBytes) ETV
attr interpolationmode none
attr recordingmode vector(packetBytes)
attr source packetSentToLower
attr title "packets sent to lower layer, packetBytes"
vector 20 MstClusteringNetwork.node[0].wlan[0].mac rcvdPkFromHl:vector(packetBytes) ETV
attr interpolationmode none
attr recordingmode vector(packetBytes)
attr source packetReceivedFromUpper
attr title "packets received from higher layer, packetBytes"
vector 21 MstClusteringNetwork.node[0].wlan[0].mac rcvdPkFromLl:vector(packetBytes) ETV
attr interpolationmode none
attr recordingmode vector(packetBytes)
attr source packetReceivedFromLower
attr title "packets received from lower layer, packetBytes"
vector 22 MstClusteringNetwork.node[0].wlan[0].mac packetDropIncorrectlyReceived:vector(packetBytes) ETV
attr interpolationmode none
attr recordingmode vector(packetBytes)
attr source packetDropReasonIsIncorrectlyReceived(packetDropped)
attr title "packet drop: incorrectly received, packetBytes"
vector 23 MstClusteringNetwork.node[0].wlan[0].mac packetDropInterfaceDown:vector(packetBytes) ETV
attr interpolationmode none
attr recordingmode vector(packetBytes)
attr source packetDropReasonIsInterfaceDown(packetDropped)
attr title "packet drop: interface down, packetBytes"
vector 24 MstClusteringNetwork.node[0].wlan[0].mac packetDropNotAddressedToUs:vector(packetBytes) ETV
attr interpolationmode none
attr recordingmode vector(packetBytes)
attr source packetDropReasonIsNotAddressedToUs(packetDropped)
attr title "packet drop: not addressed to us, packetBytes"
vector 25 MstClusteringNetwork.node[0].wlan[0].radio.energyConsumer powerConsumption:vector ETV
attr interpolationmode sample-hold
attr recordingmode vector
attr source powerConsumptionChanged
attr title "Power consumption"
attr unit W
vector 26 MstClusteringNetwork.node[0].wlan[0].radio radioMode:vector ETV
attr interpolationmode sample-hold
attr recordingmode vector
attr source radioModeChanged
attr title "Radio mode"
vector 27 MstClusteringNetwork.node[0].wlan[0].radio receptionState:vector ETV
attr interpolationmode sample-hold
attr recordingmode vector
attr source receptionStateChanged
attr title "Radio reception state"
vector 28 MstClusteringNetwork.node[0].wlan[0].radio transmissionState:vector ETV
attr interpolationmode sample-hold
attr recordingmode vector
attr source transmissionStateChanged
attr title "Radio transmission state"
vector 29 MstClusteringNetwork.node[0].wlan[0] packetDropInterfaceDown:vector(packetBytes) ETV
attr interpolationmode none
attr recordingmode vector(packetBytes)
attr source packetDropReasonIsInterfaceDown(packetDropped)
attr title "packet drops: interface down, packetBytes"
vector 30 MstClusteringNetwork.node[0].wlan[0] packetDropNoCarrier:vector(packetBytes) ETV
attr interpolationmode none
attr recordingmode vector(packetBytes)
attr source packetDropReasonIsNoCarrier(packetDropped)
attr title "packet drops: no carrier, packetBytes"
vector 31 MstClusteringNetwork.node[0].ipv4.ip packetDropAddressResolutionFailed:vector(packetBytes) ETV
attr interpolationmode none
attr recordingmode vector(packetBytes)
attr source packetDropReasonIsAddressResolutionFailed(packetDropped)
attr title "packet drop: address resolution failed, packetBytes"
vector 32 MstClusteringNetwork.node[0].ipv4.ip packetDropHopLimitReached:vector(packetBytes) ETV
attr interpolationmode none
attr recordingmode vector(packetBytes)
attr source packetDropReasonIsHopLimitReached(packetDropped)
attr title "packet drop: hop limit reached, packetBytes"
vector 33 MstClusteringNetwork.node[0].ipv4.ip packetDropForwardingDisabled:vector(packetBytes) ETV
attr interpolationmode none
attr recordingmode vector(packetBytes)
attr source packetDropReasonIsForwardingDisabled(packetDropped)
attr title "packet drop: forwarding disabled, packetBytes"
vector 34 MstClusteringNetwork.node[0].ipv4.ip packetDropNoInterfaceFound:vector(packetBytes) ETV
attr interpolationmode none
attr recordingmode vector(packetBytes)
attr source packetDropReasonIsNoInterfaceFound(packetDropped)
attr title "packet drop: no interface found, packetBytes"
vector 35 MstClusteringNetwork.node[0].ipv4.ip packetDropNoRouteFound:vector(packetBytes) ETV
attr interpolationmode none
attr recordingmode vector(packetBytes)
attr source packetDropReasonIsNoRouteFound(packetDropped)
attr title "packet drop: no route found, packetBytes"
vector 36 MstClusteringNetwork.node[0].ipv4.ip packetDropUndefined:vector(packetBytes) ETV
attr interpolationmode none
attr recordingmode vector(packetBytes)
attr source packetDropReasonIsUndefined(packetDropped)
attr title "packet drop: undefined, packetBytes"
vector 37 MstClusteringNetwork.node[0].udp packetSent:vector(packetBytes) ETV
attr interpolationmode none
attr recordingmode vector(packetBytes)
attr source packetSent
attr title "packets sent, packetBytes"
vector 38 MstClusteringNetwork.node[0].udp packetReceived:vector(packetBytes) ETV
attr interpolationmode none
attr recordingmode vector(packetBytes)
attr source packetReceived
attr title "packets received, packetBytes"
vector 39 MstClusteringNetwork.node[0].udp passedUpPk:vector(count) ETV
attr interpolationmode none
attr recordingmode vector(count)
attr source packetSentToUpper
attr title "packets passed up, count"
vector 40 MstClusteringNetwork.node[0].udp droppedPkWrongPort:vector(count) ETV
attr interpolationmode none
attr recordingmode vector(count)
attr source packetDropReasonIsNoPortFound(packetDropped)
attr title "packets dropped (wrong port), count"
vector 41 MstClusteringNetwork.node[0].udp droppedPkBadChecksum:vector(count) ETV
attr interpolationmode none
attr recordingmode vector(count)
attr source packetDropReasonIsIncorrectlyReceived(packetDropped)
attr title "packets dropped (checksum error), count"
vector 42 MstClusteringNetwork.node[0].mstClustering clusterId:vector ETV
attr recordingmode vector
attr title "Cluster ID"
vector 43 MstClusteringNetwork.node[0].mstClustering clusterSize:vector ETV
attr recordingmode vector
attr title "Cluster Size"
vector 44 MstClusteringNetwork.node[0].mstClustering isClusterHead:vector ETV
attr recordingmode vector
attr title "Is Cluster Head"
vector 45 MstClusteringNetwork.node[0].mstClustering reClusteringCount:vector ETV
attr recordingmode vector
attr title "Re-clustering Count"
vector 46 MstClusteringNetwork.node[0].mstClustering controlOverhead:vector ETV
attr recordingmode vector
attr title "Control Overhead"
vector 47 MstClusteringNetwork.node[0].mstClustering clusterStability:vector ETV
attr recordingmode vector
attr title "Cluster Stability Time"
vector 48 MstClusteringNetwork.node[0].mstClustering numNeighbors:vector ETV
attr recordingmode vector
attr title "Number of Neighbors"
vector 49 MstClusteringNetwork.node[0].mstClustering energy:vector ETV
attr recordingmode vector
attr title "Remaining Energy"
vector 50 MstClusteringNetwork.node[0].mstClustering numClusters:vector ETV
attr recordingmode vector
attr title "Number of Clusters"
vector 51 MstClusteringNetwork.node[0].mstClustering mstEdgeCount:vector ETV
attr recordingmode vector
attr title "MST Edge Count"
vector 52 MstClusteringNetwork.node[1].energyStorage powerConsumption:vector ETV
attr interpolationmode sample-hold
attr recordingmode vector
attr source powerConsumptionChanged
attr title "Power consumption"
attr unit W
vector 53 MstClusteringNetwork.node[1].energyStorage powerGeneration:vector ETV
attr interpolationmode sample-hold
attr recordingmode vector
attr source powerGenerationChanged
attr title "Power generation"
attr unit W
vector 54 MstClusteringNetwork.node[1].energyStorage residualEnergyCapacity:vector ETV
attr interpolationmode linear
attr recordingmode vector
attr source residualEnergyCapacityChanged
attr title "Residual energy capacity"
attr unit J
vector 55 MstClusteringNetwork.node[1].lo[0].lo rcvdPkFromHl:vector(packetBytes) ETV
attr interpolationmode none
attr recordingmode vector(packetBytes)
attr source packetReceivedFromUpper
attr title "packets received from higher layer, packetBytes"
vector 56 MstClusteringNetwork.node[1].lo[0].lo passedUpPk:vector(packetBytes) ETV
attr interpolationmode none
attr recordingmode vector(packetBytes)
attr source packetSentToUpper
attr title "packets passed to higher layer, packetBytes"
vector 57 MstClusteringNetwork.node[1].lo[0] packetDropInterfaceDown:vector(packetBytes) ETV
attr interpolationmode none
attr recordingmode vector(packetBytes)
attr source packetDropReasonIsInterfaceDown(packetDropped)
attr title "packet drops: interface down, packetBytes"
vector 58 MstClusteringNetwork.node[1].lo[0] packetDropNoCarrier:vector(packetBytes) ETV
attr interpolationmode none
attr recordingmode vector(packetBytes)
attr source packetDropReasonIsNoCarrier(packetDropped)
attr title "packet drops: no carrier, packetBytes"
vector 59 MstClusteringNetwork.node[1].wlan[0].queue queueLength:vector ETV
attr autoWarmupFilter false
attr interpolationmode sample-hold
attr recordingmode vector
attr source "warmup(atomic(constant0(packetPushEnded) + count(packetPushStarted) - count(packetPulled) - count(packetRemoved) - count(packetDropped)))"
attr title "queue length"
attr unit pk
vector 60 MstClusteringNetwork.node[1].wlan[0].queue queueBitLength:vector ETV
attr autoWarmupFilter false
attr interpolationmode sample-hold
attr recordingmode vector
attr source "warmup(atomic(constant0(packetPushEnded) + sum(packetLength(packetPushStarted)) - sum(packetLength(packetPulled)) - sum(packetLength(packetRemoved)) - sum(packetLength(packetDropped))))"
attr title "queue bit length"
attr unit b
vector 61 MstClusteringNetwork.node[1].wlan[0].queue queueingTime:vector ETV
attr interpolationmode none
attr recordingmode vector
attr source queueingTime(packetPulled)
attr title "queueing times"
attr unit s
vector 62 MstClusteringNetwork.node[1].wlan[0].queue incomingPacketLengths:vector ETV
attr interpolationmode none
attr recordingmode vector
attr source packetLength(packetPushStarted)
attr title "incoming packet lengths"
attr unit b
vector 63 MstClusteringNetwork.node[1].wlan[0].queue incomingDataRate:vector ETV
attr interpolationmode linear
attr recordingmode vector
attr source throughput(packetPushStarted)
attr title "incoming datarate"
attr unit bps
vector 64 MstClusteringNetwork.node[1].wlan[0].queue outgoingPacketLengths:vector ETV
attr interpolationmode none
attr recordingmode vector
attr source packetLength(packetPulled)
attr title "outgoing packet lengths"
attr unit b
vector 65 MstClusteringNetwork.node[1].wlan[0].queue outgoingDataRate:vector ETV
attr interpolationmode linear
attr recordingmode vector
attr source throughput(packetPulled)
attr title "outgoing datarate"
attr unit bps
vector 66 MstClusteringNetwork.node[1].wlan[0].queue droppedPacketLengthsQueueOverflow:vector ETV
attr interpolationmode none
attr recordingmode vector
attr source packetLength(packetDropReasonIsQueueOverflow(packetDropped))
attr title "dropped packet lengths: queue overflow"
attr unit b
vector 67 MstClusteringNetwork.node[1].wlan[0].queue flowQueueingTime:vector ETV
attr interpolationmode none
attr recordingmode vector
attr source queueingTime(demuxFlow(packetPulled))
attr title "flow queueing times"
attr unit s
vector 68 MstClusteringNetwork.node[1].wlan[0].queue flowIncomingDataRate:vector ETV
attr interpolationmode linear
attr recordingmode vector
attr source throughput(flowPacketLength(demuxFlow(packetPushStarted)))
attr title "flow specific incoming data rate"
attr unit bps
vector 69 MstClusteringNetwork.node[1].wlan[0].queue flowOutgoingDataRate:vector ETV
attr interpolationmode linear
attr recordingmode vector
attr source throughput(flowPacketLength(demuxFlow(packetPulled)))
attr title "flow specific outgoing data rate"
attr unit bps
vector 70 MstClusteringNetwork.node[1].wlan[0].mac passedUpPk:vector(packetBytes) ETV
attr interpolationmode none
attr recordingmode vector(packetBytes)
attr source packetSentToUpper
attr title "packets passed to higher layer, packetBytes"
vector 71 MstClusteringNetwork.node[1].wlan[0].mac sentDownPk:vector(packetBytes) ETV
attr interpolationmode none
attr recordingmode vector(packetBytes)
attr source packetSentToLower
attr title "packets sent to lower layer, packetBytes"
vector 72 MstClusteringNetwork.node[1].wlan[0].mac rcvdPkFromHl:vector(packetBytes) ETV
attr interpolationmode none
attr recordingmode vector(packetBytes)
attr source packetReceivedFromUpper
attr title "packets received from higher layer, packetBytes"
vector 73 MstClusteringNetwork.node[1].wlan[0].mac rcvdPkFromLl:vector(packetBytes) ETV
attr interpolationmode none
attr recordingmode vector(packetBytes)
attr source packetReceivedFromLower
attr title "packets received from lower layer, packetBytes"
vector 74 MstClusteringNetwork.node[1].wlan[0].mac packetDropIncorrectlyReceived:vector(packetBytes) ETV
attr interpolationmode none
attr recordingmode vector(packetBytes)
attr source packetDropReasonIsIncorrectlyReceived(packetDropped)
attr title "packet drop: incorrectly received, packetBytes"
vector 75 MstClusteringNetwork.node[1].wlan[0].mac packetDropInterfaceDown:vector(packetBytes) ETV
attr interpolationmode none
attr recordingmode vector(packetBytes)
attr source packetDropReasonIsInterfaceDown(packetDropped)
attr title "packet drop: interface down, packetBytes"
vector 76 MstClusteringNetwork.node[1].wlan[0].mac packetDropNotAddressedToUs:vector(packetBytes) ETV
attr interpolationmode none
attr recordingmode vector(packetBytes)
attr source packetDropReasonIsNotAddressedToUs(packetDropped)
attr title "packet drop: not addressed to us, packetBytes"
vector 77 MstClusteringNetwork.node[1].wlan[0].radio.energyConsumer powerConsumption:vector ETV
attr interpolationmode sample-hold
attr recordingmode vector
attr source powerConsumptionChanged
attr title "Power consumption"
attr unit W
vector 78 MstClusteringNetwork.node[1].wlan[0].radio radioMode:vector ETV
attr interpolationmode sample-hold
attr recordingmode vector
attr source radioModeChanged
attr title "Radio mode"
vector 79 MstClusteringNetwork.node[1].wlan[0].radio receptionState:vector ETV
attr interpolationmode sample-hold
attr recordingmode vector
attr source receptionStateChanged
attr title "Radio reception state"
vector 80 MstClusteringNetwork.node[1].wlan[0].radio transmissionState:vector ETV
attr interpolationmode sample-hold
attr recordingmode vector
attr source transmissionStateChanged
attr title "Radio transmission state"
vector 81 MstClusteringNetwork.node[1].wlan[0] packetDropInterfaceDown:vector(packetBytes) ETV
attr interpolationmode none
attr recordingmode vector(packetBytes)
attr source packetDropReasonIsInterfaceDown(packetDropped)
attr title "packet drops: interface down, packetBytes"
vector 82 MstClusteringNetwork.node[1].wlan[0] packetDropNoCarrier:vector(packetBytes) ETV
attr interpolationmode none
attr recordingmode vector(packetBytes)
attr source packetDropReasonIsNoCarrier(packetDropped)
attr title "packet drops: no carrier, packetBytes"
vector 83 MstClusteringNetwork.node[1].ipv4.ip packetDropAddressResolutionFailed:vector(packetBytes) ETV
attr interpolationmode none
attr recordingmode vector(packetBytes)
attr source packetDropReasonIsAddressResolutionFailed(packetDropped)
attr title "packet drop: address resolution failed, packetBytes"
vector 84 MstClusteringNetwork.node[1].ipv4.ip packetDropHopLimitReached:vector(packetBytes) ETV
attr interpolationmode none
attr recordingmode vector(packetBytes)
attr source packetDropReasonIsHopLimitReached(packetDropped)
attr title "packet drop: hop limit reached, packetBytes"
vector 85 MstClusteringNetwork.node[1].ipv4.ip packetDropForwardingDisabled:vector(packetBytes) ETV
attr interpolationmode none
attr recordingmode vector(packetBytes)
attr source packetDropReasonIsForwardingDisabled(packetDropped)
attr title "packet drop: forwarding disabled, packetBytes"
vector 86 MstClusteringNetwork.node[1].ipv4.ip packetDropNoInterfaceFound:vector(packetBytes) ETV
attr interpolationmode none
attr recordingmode vector(packetBytes)
attr source packetDropReasonIsNoInterfaceFound(packetDropped)
attr title "packet drop: no interface found, packetBytes"
vector 87 MstClusteringNetwork.node[1].ipv4.ip packetDropNoRouteFound:vector(packetBytes) ETV
attr interpolationmode none
attr recordingmode vector(packetBytes)
attr source packetDropReasonIsNoRouteFound(packetDropped)
attr title "packet drop: no route found, packetBytes"
vector 88 MstClusteringNetwork.node[1].ipv4.ip packetDropUndefined:vector(packetBytes) ETV
attr interpolationmode none
attr recordingmode vector(packetBytes)
attr source packetDropReasonIsUndefined(packetDropped)
attr title "packet drop: undefined, packetBytes"
vector 89 MstClusteringNetwork.node[1].udp packetSent:vector(packetBytes) ETV
attr interpolationmode none
attr recordingmode vector(packetBytes)
attr source packetSent
attr title "packets sent, packetBytes"
vector 90 MstClusteringNetwork.node[1].udp packetReceived:vector(packetBytes) ETV
attr interpolationmode none
attr recordingmode vector(packetBytes)
attr source packetReceived
attr title "packets received, packetBytes"
vector 91 MstClusteringNetwork.node[1].udp passedUpPk:vector(count) ETV
attr interpolationmode none
attr recordingmode vector(count)
attr source packetSentToUpper
attr title "packets passed up, count"
vector 92 MstClusteringNetwork.node[1].udp droppedPkWrongPort:vector(count) ETV
attr interpolationmode none
attr recordingmode vector(count)
attr source packetDropReasonIsNoPortFound(packetDropped)
attr title "packets dropped (wrong port), count"
vector 93 MstClusteringNetwork.node[1].udp droppedPkBadChecksum:vector(count) ETV
attr interpolationmode none
attr recordingmode vector(count)
attr source packetDropReasonIsIncorrectlyReceived(packetDropped)
attr title "packets dropped (checksum error), count"
vector 94 MstClusteringNetwork.node[1].mstClustering clusterId:vector ETV
attr recordingmode vector
attr title "Cluster ID"
vector 95 MstClusteringNetwork.node[1].mstClustering clusterSize:vector ETV
attr recordingmode vector
attr title "Cluster Size"
vector 96 MstClusteringNetwork.node[1].mstClustering isClusterHead:vector ETV
attr recordingmode vector
attr title "Is Cluster Head"
vector 97 MstClusteringNetwork.node[1].mstClustering reClusteringCount:vector ETV
attr recordingmode vector
attr title "Re-clustering Count"
vector 98 MstClusteringNetwork.node[1].mstClustering controlOverhead:vector ETV
attr recordingmode vector
attr title "Control Overhead"
vector 99 MstClusteringNetwork.node[1].mstClustering clusterStability:vector ETV
attr recordingmode vector
attr title "Cluster Stability Time"
vector 100 MstClusteringNetwork.node[1].mstClustering numNeighbors:vector ETV
attr recordingmode vector
attr title "Number of Neighbors"
vector 101 MstClusteringNetwork.node[1].mstClustering energy:vector ETV
attr recordingmode vector
attr title "Remaining Energy"
vector 102 MstClusteringNetwork.node[1].mstClustering numClusters:vector ETV
attr recordingmode vector
attr title "Number of Clusters"
vector 103 MstClusteringNetwork.node[1].mstClustering mstEdgeCount:vector ETV
attr recordingmode vector
attr title "MST Edge Count"
vector 104 MstClusteringNetwork.node[2].energyStorage powerConsumption:vector ETV
attr interpolationmode sample-hold
attr recordingmode vector
attr source powerConsumptionChanged
attr title "Power consumption"
attr unit W
vector 105 MstClusteringNetwork.node[2].energyStorage powerGeneration:vector ETV
attr interpolationmode sample-hold
attr recordingmode vector
attr source powerGenerationChanged
attr title "Power generation"
attr unit W
vector 106 MstClusteringNetwork.node[2].energyStorage residualEnergyCapacity:vector ETV
attr interpolationmode linear
attr recordingmode vector
attr source residualEnergyCapacityChanged
attr title "Residual energy capacity"
attr unit J
vector 107 MstClusteringNetwork.node[2].lo[0].lo rcvdPkFromHl:vector(packetBytes) ETV
attr interpolationmode none
attr recordingmode vector(packetBytes)
attr source packetReceivedFromUpper
attr title "packets received from higher layer, packetBytes"
vector 108 MstClusteringNetwork.node[2].lo[0].lo passedUpPk:vector(packetBytes) ETV
attr interpolationmode none
attr recordingmode vector(packetBytes)
attr source packetSentToUpper
attr title "packets passed to higher layer, packetBytes"
vector 109 MstClusteringNetwork.node[2].lo[0] packetDropInterfaceDown:vector(packetBytes) ETV
attr interpolationmode none
attr recordingmode vector(packetBytes)
attr source packetDropReasonIsInterfaceDown(packetDropped)
attr title "packet drops: interface down, packetBytes"
vector 110 MstClusteringNetwork.node[2].lo[0] packetDropNoCarrier:vector(packetBytes) ETV
attr interpolationmode none
attr recordingmode vector(packetBytes)
attr source packetDropReasonIsNoCarrier(packetDropped)
attr title "packet drops: no carrier, packetBytes"
vector 111 MstClusteringNetwork.node[2].wlan[0].queue queueLength:vector ETV
attr autoWarmupFilter false
attr interpolationmode sample-hold
attr recordingmode vector
attr source "warmup(atomic(constant0(packetPushEnded) + count(packetPushStarted) - count(packetPulled) - count(packetRemoved) - count(packetDropped)))"
attr title "queue length"
attr unit pk
vector 112 MstClusteringNetwork.node[2].wlan[0].queue queueBitLength:vector ETV
attr autoWarmupFilter false
attr interpolationmode sample-hold
attr recordingmode vector
attr source "warmup(atomic(constant0(packetPushEnded) + sum(packetLength(packetPushStarted)) - sum(packetLength(packetPulled)) - sum(packetLength(packetRemoved)) - sum(packetLength(packetDropped))))"
attr title "queue bit length"
attr unit b
vector 113 MstClusteringNetwork.node[2].wlan[0].queue queueingTime:vector ETV
attr interpolationmode none
attr recordingmode vector
attr source queueingTime(packetPulled)
attr title "queueing times"
attr unit s
vector 114 MstClusteringNetwork.node[2].wlan[0].queue incomingPacketLengths:vector ETV
attr interpolationmode none
attr recordingmode vector
attr source packetLength(packetPushStarted)
attr title "incoming packet lengths"
attr unit b
vector 115 MstClusteringNetwork.node[2].wlan[0].queue incomingDataRate:vector ETV
attr interpolationmode linear
attr recordingmode vector
attr source throughput(packetPushStarted)
attr title "incoming datarate"
attr unit bps
vector 116 MstClusteringNetwork.node[2].wlan[0].queue outgoingPacketLengths:vector ETV
attr interpolationmode none
attr recordingmode vector
attr source packetLength(packetPulled)
attr title "outgoing packet lengths"
attr unit b
vector 117 MstClusteringNetwork.node[2].wlan[0].queue outgoingDataRate:vector ETV
attr interpolationmode linear
attr recordingmode vector
attr source throughput(packetPulled)
attr title "outgoing datarate"
attr unit bps
vector 118 MstClusteringNetwork.node[2].wlan[0].queue droppedPacketLengthsQueueOverflow:vector ETV
attr interpolationmode none
attr recordingmode vector
attr source packetLength(packetDropReasonIsQueueOverflow(packetDropped))
attr title "dropped packet lengths: queue overflow"
attr unit b
vector 119 MstClusteringNetwork.node[2].wlan[0].queue flowQueueingTime:vector ETV
attr interpolationmode none
attr recordingmode vector
attr source queueingTime(demuxFlow(packetPulled))
attr title "flow queueing times"
attr unit s
vector 120 MstClusteringNetwork.node[2].wlan[0].queue flowIncomingDataRate:vector ETV
attr interpolationmode linear
attr recordingmode vector
attr source throughput(flowPacketLength(demuxFlow(packetPushStarted)))
attr title "flow specific incoming data rate"
attr unit bps
vector 121 MstClusteringNetwork.node[2].wlan[0].queue flowOutgoingDataRate:vector ETV
attr interpolationmode linear
attr recordingmode vector
attr source throughput(flowPacketLength(demuxFlow(packetPulled)))
attr title "flow specific outgoing data rate"
attr unit bps
vector 122 MstClusteringNetwork.node[2].wlan[0].mac passedUpPk:vector(packetBytes) ETV
attr interpolationmode none
attr recordingmode vector(packetBytes)
attr source packetSentToUpper
attr title "packets passed to higher layer, packetBytes"
vector 123 MstClusteringNetwork.node[2].wlan[0].mac sentDownPk:vector(packetBytes) ETV
attr interpolationmode none
attr recordingmode vector(packetBytes)
attr source packetSentToLower
attr title "packets sent to lower layer, packetBytes"
vector 124 MstClusteringNetwork.node[2].wlan[0].mac rcvdPkFromHl:vector(packetBytes) ETV
attr interpolationmode none
attr recordingmode vector(packetBytes)
attr source packetReceivedFromUpper
attr title "packets received from higher layer, packetBytes"
vector 125 MstClusteringNetwork.node[2].wlan[0].mac rcvdPkFromLl:vector(packetBytes) ETV
attr interpolationmode none
attr recordingmode vector(packetBytes)
attr source packetReceivedFromLower
attr title "packets received from lower layer, packetBytes"
vector 126 MstClusteringNetwork.node[2].wlan[0].mac packetDropIncorrectlyReceived:vector(packetBytes) ETV
attr interpolationmode none
attr recordingmode vector(packetBytes)
attr source packetDropReasonIsIncorrectlyReceived(packetDropped)
attr title "packet drop: incorrectly received, packetBytes"
vector 127 MstClusteringNetwork.node[2].wlan[0].mac packetDropInterfaceDown:vector(packetBytes) ETV
attr interpolationmode none
attr recordingmode vector(packetBytes)
attr source packetDropReasonIsInterfaceDown(packetDropped)
attr title "packet drop: interface down, packetBytes"
vector 128 MstClusteringNetwork.node[2].wlan[0].mac packetDropNotAddressedToUs:vector(packetBytes) ETV
attr interpolationmode none
attr recordingmode vector(packetBytes)
attr source packetDropReasonIsNotAddressedToUs(packetDropped)
attr title "packet drop: not addressed to us, packetBytes"
vector 129 MstClusteringNetwork.node[2].wlan[0].radio.energyConsumer powerConsumption:vector ETV
attr interpolationmode sample-hold
attr recordingmode vector
attr source powerConsumptionChanged
attr title "Power consumption"
attr unit W
vector 130 MstClusteringNetwork.node[2].wlan[0].radio radioMode:vector ETV
attr interpolationmode sample-hold
attr recordingmode vector
attr source radioModeChanged
attr title "Radio mode"
vector 131 MstClusteringNetwork.node[2].wlan[0].radio receptionState:vector ETV
attr interpolationmode sample-hold
attr recordingmode vector
attr source receptionStateChanged
attr title "Radio reception state"
vector 132 MstClusteringNetwork.node[2].wlan[0].radio transmissionState:vector ETV
attr interpolationmode sample-hold
attr recordingmode vector
attr source transmissionStateChanged
attr title "Radio transmission state"
vector 133 MstClusteringNetwork.node[2].wlan[0] packetDropInterfaceDown:vector(packetBytes) ETV
attr interpolationmode none
attr recordingmode vector(packetBytes)
attr source packetDropReasonIsInterfaceDown(packetDropped)
attr title "packet drops: interface down, packetBytes"
vector 134 MstClusteringNetwork.node[2].wlan[0] packetDropNoCarrier:vector(packetBytes) ETV
attr interpolationmode none
attr recordingmode vector(packetBytes)
attr source packetDropReasonIsNoCarrier(packetDropped)
attr title "packet drops: no carrier, packetBytes"
vector 135 MstClusteringNetwork.node[2].ipv4.ip packetDropAddressResolutionFailed:vector(packetBytes) ETV
attr interpolationmode none
attr recordingmode vector(packetBytes)
attr source packetDropReasonIsAddressResolutionFailed(packetDropped)
attr title "packet drop: address resolution failed, packetBytes"
vector 136 MstClusteringNetwork.node[2].ipv4.ip packetDropHopLimitReached:vector(packetBytes) ETV
attr interpolationmode none
attr recordingmode vector(packetBytes)
attr source packetDropReasonIsHopLimitReached(packetDropped)
attr title "packet drop: hop limit reached, packetBytes"
vector 137 MstClusteringNetwork.node[2].ipv4.ip packetDropForwardingDisabled:vector(packetBytes) ETV
attr interpolationmode none
attr recordingmode vector(packetBytes)
attr source packetDropReasonIsForwardingDisabled(packetDropped)
attr title "packet drop: forwarding disabled, packetBytes"
vector 138 MstClusteringNetwork.node[2].ipv4.ip packetDropNoInterfaceFound:vector(packetBytes) ETV
attr interpolationmode none
attr recordingmode vector(packetBytes)
attr source packetDropReasonIsNoInterfaceFound(packetDropped)
attr title "packet drop: no interface found, packetBytes"
vector 139 MstClusteringNetwork.node[2].ipv4.ip packetDropNoRouteFound:vector(packetBytes) ETV
attr interpolationmode none
attr recordingmode vector(packetBytes)
attr source packetDropReasonIsNoRouteFound(packetDropped)
attr title "packet drop: no route found, packetBytes"
vector 140 MstClusteringNetwork.node[2].ipv4.ip packetDropUndefined:vector(packetBytes) ETV
attr interpolationmode none
attr recordingmode vector(packetBytes)
attr source packetDropReasonIsUndefined(packetDropped)
attr title "packet drop: undefined, packetBytes"
vector 141 MstClusteringNetwork.node[2].udp packetSent:vector(packetBytes) ETV
attr interpolationmode none
attr recordingmode vector(packetBytes)
attr source packetSent
attr title "packets sent, packetBytes"
vector 142 MstClusteringNetwork.node[2].udp packetReceived:vector(packetBytes) ETV
attr interpolationmode none
attr recordingmode vector(packetBytes)
attr source packetReceived
attr title "packets received, packetBytes"
vector 143 MstClusteringNetwork.node[2].udp passedUpPk:vector(count) ETV
attr interpolationmode none
attr recordingmode vector(count)
attr source packetSentToUpper
attr title "packets passed up, count"
vector 144 MstClusteringNetwork.node[2].udp droppedPkWrongPort:vector(count) ETV
attr interpolationmode none
attr recordingmode vector(count)
attr source packetDropReasonIsNoPortFound(packetDropped)
attr title "packets dropped (wrong port), count"
vector 145 MstClusteringNetwork.node[2].udp droppedPkBadChecksum:vector(count) ETV
attr interpolationmode none
attr recordingmode vector(count)
attr source packetDropReasonIsIncorrectlyReceived(packetDropped)
attr title "packets dropped (checksum error), count"
vector 146 MstClusteringNetwork.node[2].mstClustering clusterId:vector ETV
attr recordingmode vector
attr title "Cluster ID"
vector 147 MstClusteringNetwork.node[2].mstClustering clusterSize:vector ETV
attr recordingmode vector
attr title "Cluster Size"
vector 148 MstClusteringNetwork.node[2].mstClustering isClusterHead:vector ETV
attr recordingmode vector
attr title "Is Cluster Head"
vector 149 MstClusteringNetwork.node[2].mstClustering reClusteringCount:vector ETV
attr recordingmode vector
attr title "Re-clustering Count"
vector 150 MstClusteringNetwork.node[2].mstClustering controlOverhead:vector ETV
attr recordingmode vector
attr title "Control Overhead"
vector 151 MstClusteringNetwork.node[2].mstClustering clusterStability:vector ETV
attr recordingmode vector
attr title "Cluster Stability Time"
vector 152 MstClusteringNetwork.node[2].mstClustering numNeighbors:vector ETV
attr recordingmode vector
attr title "Number of Neighbors"
vector 153 MstClusteringNetwork.node[2].mstClustering energy:vector ETV
attr recordingmode vector
attr title "Remaining Energy"
vector 154 MstClusteringNetwork.node[2].mstClustering numClusters:vector ETV
attr recordingmode vector
attr title "Number of Clusters"
vector 155 MstClusteringNetwork.node[2].mstClustering mstEdgeCount:vector ETV
attr recordingmode vector
attr title "MST Edge Count"
vector 156 MstClusteringNetwork.node[3].energyStorage powerConsumption:vector ETV
attr interpolationmode sample-hold
attr recordingmode vector
attr source powerConsumptionChanged
attr title "Power consumption"
attr unit W
vector 157 MstClusteringNetwork.node[3].energyStorage powerGeneration:vector ETV
attr interpolationmode sample-hold
attr recordingmode vector
attr source powerGenerationChanged
attr title "Power generation"
attr unit W
vector 158 MstClusteringNetwork.node[3].energyStorage residualEnergyCapacity:vector ETV
attr interpolationmode linear
attr recordingmode vector
attr source residualEnergyCapacityChanged
attr title "Residual energy capacity"
attr unit J
vector 159 MstClusteringNetwork.node[3].lo[0].lo rcvdPkFromHl:vector(packetBytes) ETV
attr interpolationmode none
attr recordingmode vector(packetBytes)
attr source packetReceivedFromUpper
attr title "packets received from higher layer, packetBytes"
vector 160 MstClusteringNetwork.node[3].lo[0].lo passedUpPk:vector(packetBytes) ETV
attr interpolationmode none
attr recordingmode vector(packetBytes)
attr source packetSentToUpper
attr title "packets passed to higher layer, packetBytes"
vector 161 MstClusteringNetwork.node[3].lo[0] packetDropInterfaceDown:vector(packetBytes) ETV
attr interpolationmode none
attr recordingmode vector(packetBytes)
attr source packetDropReasonIsInterfaceDown(packetDropped)
attr title "packet drops: interface down, packetBytes"
vector 162 MstClusteringNetwork.node[3].lo[0] packetDropNoCarrier:vector(packetBytes) ETV
attr interpolationmode none
attr recordingmode vector(packetBytes)
attr source packetDropReasonIsNoCarrier(packetDropped)
attr title "packet drops: no carrier, packetBytes"
vector 163 MstClusteringNetwork.node[3].wlan[0].queue queueLength:vector ETV
attr autoWarmupFilter false
attr interpolationmode sample-hold
attr recordingmode vector
attr source "warmup(atomic(constant0(packetPushEnded) + count(packetPushStarted) - count(packetPulled) - count(packetRemoved) - count(packetDropped)))"
attr title "queue length"
attr unit pk
vector 164 MstClusteringNetwork.node[3].wlan[0].queue queueBitLength:vector ETV
attr autoWarmupFilter false
attr interpolationmode sample-hold
attr recordingmode vector
attr source "warmup(atomic(constant0(packetPushEnded) + sum(packetLength(packetPushStarted)) - sum(packetLength(packetPulled)) - sum(packetLength(packetRemoved)) - sum(packetLength(packetDropped))))"
attr title "queue bit length"
attr unit b
vector 165 MstClusteringNetwork.node[3].wlan[0].queue queueingTime:vector ETV
attr interpolationmode none
attr recordingmode vector
attr source queueingTime(packetPulled)
attr title "queueing times"
attr unit s
vector 166 MstClusteringNetwork.node[3].wlan[0].queue incomingPacketLengths:vector ETV
attr interpolationmode none
attr recordingmode vector
attr source packetLength(packetPushStarted)
attr title "incoming packet lengths"
attr unit b
vector 167 MstClusteringNetwork.node[3].wlan[0].queue incomingDataRate:vector ETV
attr interpolationmode linear
attr recordingmode vector
attr source throughput(packetPushStarted)
attr title "incoming datarate"
attr unit bps
vector 168 MstClusteringNetwork.node[3].wlan[0].queue outgoingPacketLengths:vector ETV
attr interpolationmode none
attr recordingmode vector
attr source packetLength(packetPulled)
attr title "outgoing packet lengths"
attr unit b
vector 169 MstClusteringNetwork.node[3].wlan[0].queue outgoingDataRate:vector ETV
attr interpolationmode linear
attr recordingmode vector
attr source throughput(packetPulled)
attr title "outgoing datarate"
attr unit bps
vector 170 MstClusteringNetwork.node[3].wlan[0].queue droppedPacketLengthsQueueOverflow:vector ETV
attr interpolationmode none
attr recordingmode vector
attr source packetLength(packetDropReasonIsQueueOverflow(packetDropped))
attr title "dropped packet lengths: queue overflow"
attr unit b
vector 171 MstClusteringNetwork.node[3].wlan[0].queue flowQueueingTime:vector ETV
attr interpolationmode none
attr recordingmode vector
attr source queueingTime(demuxFlow(packetPulled))
attr title "flow queueing times"
attr unit s
vector 172 MstClusteringNetwork.node[3].wlan[0].queue flowIncomingDataRate:vector ETV
attr interpolationmode linear
attr recordingmode vector
attr source throughput(flowPacketLength(demuxFlow(packetPushStarted)))
attr title "flow specific incoming data rate"
attr unit bps
vector 173 MstClusteringNetwork.node[3].wlan[0].queue flowOutgoingDataRate:vector ETV
attr interpolationmode linear
attr recordingmode vector
attr source throughput(flowPacketLength(demuxFlow(packetPulled)))
attr title "flow specific outgoing data rate"
attr unit bps
vector 174 MstClusteringNetwork.node[3].wlan[0].mac passedUpPk:vector(packetBytes) ETV
attr interpolationmode none
attr recordingmode vector(packetBytes)
attr source packetSentToUpper
attr title "packets passed to higher layer, packetBytes"
vector 175 MstClusteringNetwork.node[3].wlan[0].mac sentDownPk:vector(packetBytes) ETV
attr interpolationmode none
attr recordingmode vector(packetBytes)
attr source packetSentToLower
attr title "packets sent to lower layer, packetBytes"
vector 176 MstClusteringNetwork.node[3].wlan[0].mac rcvdPkFromHl:vector(packetBytes) ETV
attr interpolationmode none
attr recordingmode vector(packetBytes)
attr source packetReceivedFromUpper
attr title "packets received from higher layer, packetBytes"
vector 177 MstClusteringNetwork.node[3].wlan[0].mac rcvdPkFromLl:vector(packetBytes) ETV
attr interpolationmode none
attr recordingmode vector(packetBytes)
attr source packetReceivedFromLower
attr title "packets received from lower layer, packetBytes"
vector 178 MstClusteringNetwork.node[3].wlan[0].mac packetDropIncorrectlyReceived:vector(packetBytes) ETV
attr interpolationmode none
attr recordingmode vector(packetBytes)
attr source packetDropReasonIsIncorrectlyReceived(packetDropped)
attr title "packet drop: incorrectly received, packetBytes"
vector 179 MstClusteringNetwork.node[3].wlan[0].mac packetDropInterfaceDown:vector(packetBytes) ETV
attr interpolationmode none
attr recordingmode vector(packetBytes)
attr source packetDropReasonIsInterfaceDown(packetDropped)
attr title "packet drop: interface down, packetBytes"
vector 180 MstClusteringNetwork.node[3].wlan[0].mac packetDropNotAddressedToUs:vector(packetBytes) ETV
attr interpolationmode none
attr recordingmode vector(packetBytes)
attr source packetDropReasonIsNotAddressedToUs(packetDropped)
attr title "packet drop: not addressed to us, packetBytes"
vector 181 MstClusteringNetwork.node[3].wlan[0].radio.energyConsumer powerConsumption:vector ETV
attr interpolationmode sample-hold
attr recordingmode vector
attr source powerConsumptionChanged
attr title "Power consumption"
attr unit W
vector 182 MstClusteringNetwork.node[3].wlan[0].radio radioMode:vector ETV
attr interpolationmode sample-hold
attr recordingmode vector
attr source radioModeChanged
attr title "Radio mode"
vector 183 MstClusteringNetwork.node[3].wlan[0].radio receptionState:vector ETV
attr interpolationmode sample-hold
attr recordingmode vector
attr source receptionStateChanged
attr title "Radio reception state"
vector 184 MstClusteringNetwork.node[3].wlan[0].radio transmissionState:vector ETV
attr interpolationmode sample-hold
attr recordingmode vector
attr source transmissionStateChanged
attr title "Radio transmission state"
vector 185 MstClusteringNetwork.node[3].wlan[0] packetDropInterfaceDown:vector(packetBytes) ETV
attr interpolationmode none
attr recordingmode vector(packetBytes)
attr source packetDropReasonIsInterfaceDown(packetDropped)
attr title "packet drops: interface down, packetBytes"
vector 186 MstClusteringNetwork.node[3].wlan[0] packetDropNoCarrier:vector(packetBytes) ETV
attr interpolationmode none
attr recordingmode vector(packetBytes)
attr source packetDropReasonIsNoCarrier(packetDropped)
attr title "packet drops: no carrier, packetBytes"
vector 187 MstClusteringNetwork.node[3].ipv4.ip packetDropAddressResolutionFailed:vector(packetBytes) ETV
attr interpolationmode none
attr recordingmode vector(packetBytes)
attr source packetDropReasonIsAddressResolutionFailed(packetDropped)
attr title "packet drop: address resolution failed, packetBytes"
vector 188 MstClusteringNetwork.node[3].ipv4.ip packetDropHopLimitReached:vector(packetBytes) ETV
attr interpolationmode none
attr recordingmode vector(packetBytes)
attr source packetDropReasonIsHopLimitReached(packetDropped)
attr title "packet drop: hop limit reached, packetBytes"
vector 189 MstClusteringNetwork.node[3].ipv4.ip packetDropForwardingDisabled:vector(packetBytes) ETV
attr interpolationmode none
attr recordingmode vector(packetBytes)
attr source packetDropReasonIsForwardingDisabled(packetDropped)
attr title "packet drop: forwarding disabled, packetBytes"
vector 190 MstClusteringNetwork.node[3].ipv4.ip packetDropNoInterfaceFound:vector(packetBytes) ETV
attr interpolationmode none
attr recordingmode vector(packetBytes)
attr source packetDropReasonIsNoInterfaceFound(packetDropped)
attr title "packet drop: no interface found, packetBytes"
vector 191 MstClusteringNetwork.node[3].ipv4.ip packetDropNoRouteFound:vector(packetBytes) ETV
attr interpolationmode none
attr recordingmode vector(packetBytes)
attr source packetDropReasonIsNoRouteFound(packetDropped)
attr title "packet drop: no route found, packetBytes"
vector 192 MstClusteringNetwork.node[3].ipv4.ip packetDropUndefined:vector(packetBytes) ETV
attr interpolationmode none
attr recordingmode vector(packetBytes)
attr source packetDropReasonIsUndefined(packetDropped)
attr title "packet drop: undefined, packetBytes"
vector 193 MstClusteringNetwork.node[3].udp packetSent:vector(packetBytes) ETV
attr interpolationmode none
attr recordingmode vector(packetBytes)
attr source packetSent
attr title "packets sent, packetBytes"
vector 194 MstClusteringNetwork.node[3].udp packetReceived:vector(packetBytes) ETV
attr interpolationmode none
attr recordingmode vector(packetBytes)
attr source packetReceived
attr title "packets received, packetBytes"
vector 195 MstClusteringNetwork.node[3].udp passedUpPk:vector(count) ETV
attr interpolationmode none
attr recordingmode vector(count)
attr source packetSentToUpper
attr title "packets passed up, count"
vector 196 MstClusteringNetwork.node[3].udp droppedPkWrongPort:vector(count) ETV
attr interpolationmode none
attr recordingmode vector(count)
attr source packetDropReasonIsNoPortFound(packetDropped)
attr title "packets dropped (wrong port), count"
vector 197 MstClusteringNetwork.node[3].udp droppedPkBadChecksum:vector(count) ETV
attr interpolationmode none
attr recordingmode vector(count)
attr source packetDropReasonIsIncorrectlyReceived(packetDropped)
attr title "packets dropped (checksum error), count"
vector 198 MstClusteringNetwork.node[3].mstClustering clusterId:vector ETV
attr recordingmode vector
attr title "Cluster ID"
vector 199 MstClusteringNetwork.node[3].mstClustering clusterSize:vector ETV
attr recordingmode vector
attr title "Cluster Size"
vector 200 MstClusteringNetwork.node[3].mstClustering isClusterHead:vector ETV
attr recordingmode vector
attr title "Is Cluster Head"
vector 201 MstClusteringNetwork.node[3].mstClustering reClusteringCount:vector ETV
attr recordingmode vector
attr title "Re-clustering Count"
vector 202 MstClusteringNetwork.node[3].mstClustering controlOverhead:vector ETV
attr recordingmode vector
attr title "Control Overhead"
vector 203 MstClusteringNetwork.node[3].mstClustering clusterStability:vector ETV
attr recordingmode vector
attr title "Cluster Stability Time"
vector 204 MstClusteringNetwork.node[3].mstClustering numNeighbors:vector ETV
attr recordingmode vector
attr title "Number of Neighbors"
vector 205 MstClusteringNetwork.node[3].mstClustering energy:vector ETV
attr recordingmode vector
attr title "Remaining Energy"
vector 206 MstClusteringNetwork.node[3].mstClustering numClusters:vector ETV
attr recordingmode vector
attr title "Number of Clusters"
vector 207 MstClusteringNetwork.node[3].mstClustering mstEdgeCount:vector ETV
attr recordingmode vector
attr title "MST Edge Count"
vector 208 MstClusteringNetwork.node[4].energyStorage powerConsumption:vector ETV
attr interpolationmode sample-hold
attr recordingmode vector
attr source powerConsumptionChanged
attr title "Power consumption"
attr unit W
vector 209 MstClusteringNetwork.node[4].energyStorage powerGeneration:vector ETV
attr interpolationmode sample-hold
attr recordingmode vector
attr source powerGenerationChanged
attr title "Power generation"
attr unit W
vector 210 MstClusteringNetwork.node[4].energyStorage residualEnergyCapacity:vector ETV
attr interpolationmode linear
attr recordingmode vector
attr source residualEnergyCapacityChanged
attr title "Residual energy capacity"
attr unit J
vector 211 MstClusteringNetwork.node[4].lo[0].lo rcvdPkFromHl:vector(packetBytes) ETV
attr interpolationmode none
attr recordingmode vector(packetBytes)
attr source packetReceivedFromUpper
attr title "packets received from higher layer, packetBytes"
vector 212 MstClusteringNetwork.node[4].lo[0].lo passedUpPk:vector(packetBytes) ETV
attr interpolationmode none
attr recordingmode vector(packetBytes)
attr source packetSentToUpper
attr title "packets passed to higher layer, packetBytes"
vector 213 MstClusteringNetwork.node[4].lo[0] packetDropInterfaceDown:vector(packetBytes) ETV
attr interpolationmode none
attr recordingmode vector(packetBytes)
attr source packetDropReasonIsInterfaceDown(packetDropped)
attr title "packet drops: interface down, packetBytes"
vector 214 MstClusteringNetwork.node[4].lo[0] packetDropNoCarrier:vector(packetBytes) ETV
attr interpolationmode none
attr recordingmode vector(packetBytes)
attr source packetDropReasonIsNoCarrier(packetDropped)
attr title "packet drops: no carrier, packetBytes"
vector 215 MstClusteringNetwork.node[4].wlan[0].queue queueLength:vector ETV
attr autoWarmupFilter false
attr interpolationmode sample-hold
attr recordingmode vector
attr source "warmup(atomic(constant0(packetPushEnded) + count(packetPushStarted) - count(packetPulled) - count(packetRemoved) - count(packetDropped)))"
attr title "queue length"
attr unit pk
vector 216 MstClusteringNetwork.node[4].wlan[0].queue queueBitLength:vector ETV
attr autoWarmupFilter false
attr interpolationmode sample-hold
attr recordingmode vector
attr source "warmup(atomic(constant0(packetPushEnded) + sum(packetLength(packetPushStarted)) - sum(packetLength(packetPulled)) - sum(packetLength(packetRemoved)) - sum(packetLength(packetDropped))))"
attr title "queue bit length"
attr unit b
vector 217 MstClusteringNetwork.node[4].wlan[0].queue queueingTime:vector ETV
attr interpolationmode none
attr recordingmode vector
attr source queueingTime(packetPulled)
attr title "queueing times"
attr unit s
vector 218 MstClusteringNetwork.node[4].wlan[0].queue incomingPacketLengths:vector ETV
attr interpolationmode none
attr recordingmode vector
attr source packetLength(packetPushStarted)
attr title "incoming packet lengths"
attr unit b
vector 219 MstClusteringNetwork.node[4].wlan[0].queue incomingDataRate:vector ETV
attr interpolationmode linear
attr recordingmode vector
attr source throughput(packetPushStarted)
attr title "incoming datarate"
attr unit bps
vector 220 MstClusteringNetwork.node[4].wlan[0].queue outgoingPacketLengths:vector ETV
attr interpolationmode none
attr recordingmode vector
attr source packetLength(packetPulled)
attr title "outgoing packet lengths"
attr unit b
vector 221 MstClusteringNetwork.node[4].wlan[0].queue outgoingDataRate:vector ETV
attr interpolationmode linear
attr recordingmode vector
attr source throughput(packetPulled)
attr title "outgoing datarate"
attr unit bps
vector 222 MstClusteringNetwork.node[4].wlan[0].queue droppedPacketLengthsQueueOverflow:vector ETV
attr interpolationmode none
attr recordingmode vector
attr source packetLength(packetDropReasonIsQueueOverflow(packetDropped))
attr title "dropped packet lengths: queue overflow"
attr unit b
vector 223 MstClusteringNetwork.node[4].wlan[0].queue flowQueueingTime:vector ETV
attr interpolationmode none
attr recordingmode vector
attr source queueingTime(demuxFlow(packetPulled))
attr title "flow queueing times"
attr unit s
vector 224 MstClusteringNetwork.node[4].wlan[0].queue flowIncomingDataRate:vector ETV
attr interpolationmode linear
attr recordingmode vector
attr source throughput(flowPacketLength(demuxFlow(packetPushStarted)))
attr title "flow specific incoming data rate"
attr unit bps
vector 225 MstClusteringNetwork.node[4].wlan[0].queue flowOutgoingDataRate:vector ETV
attr interpolationmode linear
attr recordingmode vector
attr source throughput(flowPacketLength(demuxFlow(packetPulled)))
attr title "flow specific outgoing data rate"
attr unit bps
vector 226 MstClusteringNetwork.node[4].wlan[0].mac passedUpPk:vector(packetBytes) ETV
attr interpolationmode none
attr recordingmode vector(packetBytes)
attr source packetSentToUpper
attr title "packets passed to higher layer, packetBytes"
vector 227 MstClusteringNetwork.node[4].wlan[0].mac sentDownPk:vector(packetBytes) ETV
attr interpolationmode none
attr recordingmode vector(packetBytes)
attr source packetSentToLower
attr title "packets sent to lower layer, packetBytes"
vector 228 MstClusteringNetwork.node[4].wlan[0].mac rcvdPkFromHl:vector(packetBytes) ETV
attr interpolationmode none
attr recordingmode vector(packetBytes)
attr source packetReceivedFromUpper
attr title "packets received from higher layer, packetBytes"
vector 229 MstClusteringNetwork.node[4].wlan[0].mac rcvdPkFromLl:vector(packetBytes) ETV
attr interpolationmode none
attr recordingmode vector(packetBytes)
attr source packetReceivedFromLower
attr title "packets received from lower layer, packetBytes"
vector 230 MstClusteringNetwork.node[4].wlan[0].mac packetDropIncorrectlyReceived:vector(packetBytes) ETV
attr interpolationmode none
attr recordingmode vector(packetBytes)
attr source packetDropReasonIsIncorrectlyReceived(packetDropped)
attr title "packet drop: incorrectly received, packetBytes"
vector 231 MstClusteringNetwork.node[4].wlan[0].mac packetDropInterfaceDown:vector(packetBytes) ETV
attr interpolationmode none
attr recordingmode vector(packetBytes)
attr source packetDropReasonIsInterfaceDown(packetDropped)
attr title "packet drop: interface down, packetBytes"
vector 232 MstClusteringNetwork.node[4].wlan[0].mac packetDropNotAddressedToUs:vector(packetBytes) ETV
attr interpolationmode none
attr recordingmode vector(packetBytes)
attr source packetDropReasonIsNotAddressedToUs(packetDropped)
attr title "packet drop: not addressed to us, packetBytes"
vector 233 MstClusteringNetwork.node[4].wlan[0].radio.energyConsumer powerConsumption:vector ETV
attr interpolationmode sample-hold
attr recordingmode vector
attr source powerConsumptionChanged
attr title "Power consumption"
attr unit W
vector 234 MstClusteringNetwork.node[4].wlan[0].radio radioMode:vector ETV
attr interpolationmode sample-hold
attr recordingmode vector
attr source radioModeChanged
attr title "Radio mode"
vector 235 MstClusteringNetwork.node[4].wlan[0].radio receptionState:vector ETV
attr interpolationmode sample-hold
attr recordingmode vector
attr source receptionStateChanged
attr title "Radio reception state"
vector 236 MstClusteringNetwork.node[4].wlan[0].radio transmissionState:vector ETV
attr interpolationmode sample-hold
attr recordingmode vector
attr source transmissionStateChanged
attr title "Radio transmission state"
vector 237 MstClusteringNetwork.node[4].wlan[0] packetDropInterfaceDown:vector(packetBytes) ETV
attr interpolationmode none
attr recordingmode vector(packetBytes)
attr source packetDropReasonIsInterfaceDown(packetDropped)
attr title "packet drops: interface down, packetBytes"
vector 238 MstClusteringNetwork.node[4].wlan[0] packetDropNoCarrier:vector(packetBytes) ETV
attr interpolationmode none
attr recordingmode vector(packetBytes)
attr source packetDropReasonIsNoCarrier(packetDropped)
attr title "packet drops: no carrier, packetBytes"
vector 239 MstClusteringNetwork.node[4].ipv4.ip packetDropAddressResolutionFailed:vector(packetBytes) ETV
attr interpolationmode none
attr recordingmode vector(packetBytes)
attr source packetDropReasonIsAddressResolutionFailed(packetDropped)
attr title "packet drop: address resolution failed, packetBytes"
vector 240 MstClusteringNetwork.node[4].ipv4.ip packetDropHopLimitReached:vector(packetBytes) ETV
attr interpolationmode none
attr recordingmode vector(packetBytes)
attr source packetDropReasonIsHopLimitReached(packetDropped)
attr title "packet drop: hop limit reached, packetBytes"
vector 241 MstClusteringNetwork.node[4].ipv4.ip packetDropForwardingDisabled:vector(packetBytes) ETV
attr interpolationmode none
attr recordingmode vector(packetBytes)
attr source packetDropReasonIsForwardingDisabled(packetDropped)
attr title "packet drop: forwarding disabled, packetBytes"
vector 242 MstClusteringNetwork.node[4].ipv4.ip packetDropNoInterfaceFound:vector(packetBytes) ETV
attr interpolationmode none
attr recordingmode vector(packetBytes)
attr source packetDropReasonIsNoInterfaceFound(packetDropped)
attr title "packet drop: no interface found, packetBytes"
vector 243 MstClusteringNetwork.node[4].ipv4.ip packetDropNoRouteFound:vector(packetBytes) ETV
attr interpolationmode none
attr recordingmode vector(packetBytes)
attr source packetDropReasonIsNoRouteFound(packetDropped)
attr title "packet drop: no route found, packetBytes"
vector 244 MstClusteringNetwork.node[4].ipv4.ip packetDropUndefined:vector(packetBytes) ETV
attr interpolationmode none
attr recordingmode vector(packetBytes)
attr source packetDropReasonIsUndefined(packetDropped)
attr title "packet drop: undefined, packetBytes"
vector 245 MstClusteringNetwork.node[4].udp packetSent:vector(packetBytes) ETV
attr interpolationmode none
attr recordingmode vector(packetBytes)
attr source packetSent
attr title "packets sent, packetBytes"
vector 246 MstClusteringNetwork.node[4].udp packetReceived:vector(packetBytes) ETV
attr interpolationmode none
attr recordingmode vector(packetBytes)
attr source packetReceived
attr title "packets received, packetBytes"
vector 247 MstClusteringNetwork.node[4].udp passedUpPk:vector(count) ETV
attr interpolationmode none
attr recordingmode vector(count)
attr source packetSentToUpper
attr title "packets passed up, count"
vector 248 MstClusteringNetwork.node[4].udp droppedPkWrongPort:vector(count) ETV
attr interpolationmode none
attr recordingmode vector(count)
attr source packetDropReasonIsNoPortFound(packetDropped)
attr title "packets dropped (wrong port), count"
vector 249 MstClusteringNetwork.node[4].udp droppedPkBadChecksum:vector(count) ETV
attr interpolationmode none
attr recordingmode vector(count)
attr source packetDropReasonIsIncorrectlyReceived(packetDropped)
attr title "packets dropped (checksum error), count"
vector 250 MstClusteringNetwork.node[4].mstClustering clusterId:vector ETV
attr recordingmode vector
attr title "Cluster ID"
vector 251 MstClusteringNetwork.node[4].mstClustering clusterSize:vector ETV
attr recordingmode vector
attr title "Cluster Size"
vector 252 MstClusteringNetwork.node[4].mstClustering isClusterHead:vector ETV
attr recordingmode vector
attr title "Is Cluster Head"
vector 253 MstClusteringNetwork.node[4].mstClustering reClusteringCount:vector ETV
attr recordingmode vector
attr title "Re-clustering Count"
vector 254 MstClusteringNetwork.node[4].mstClustering controlOverhead:vector ETV
attr recordingmode vector
attr title "Control Overhead"
vector 255 MstClusteringNetwork.node[4].mstClustering clusterStability:vector ETV
attr recordingmode vector
attr title "Cluster Stability Time"
vector 256 MstClusteringNetwork.node[4].mstClustering numNeighbors:vector ETV
attr recordingmode vector
attr title "Number of Neighbors"
vector 257 MstClusteringNetwork.node[4].mstClustering energy:vector ETV
attr recordingmode vector
attr title "Remaining Energy"
vector 258 MstClusteringNetwork.node[4].mstClustering numClusters:vector ETV
attr recordingmode vector
attr title "Number of Clusters"
vector 259 MstClusteringNetwork.node[4].mstClustering mstEdgeCount:vector ETV
attr recordingmode vector
attr title "MST Edge Count"
vector 260 MstClusteringNetwork.node[5].energyStorage powerConsumption:vector ETV
attr interpolationmode sample-hold
attr recordingmode vector
attr source powerConsumptionChanged
attr title "Power consumption"
attr unit W
vector 261 MstClusteringNetwork.node[5].energyStorage powerGeneration:vector ETV
attr interpolationmode sample-hold
attr recordingmode vector
attr source powerGenerationChanged
attr title "Power generation"
attr unit W
vector 262 MstClusteringNetwork.node[5].energyStorage residualEnergyCapacity:vector ETV
attr interpolationmode linear
attr recordingmode vector
attr source residualEnergyCapacityChanged
attr title "Residual energy capacity"
attr unit J
vector 263 MstClusteringNetwork.node[5].lo[0].lo rcvdPkFromHl:vector(packetBytes) ETV
attr interpolationmode none
attr recordingmode vector(packetBytes)
attr source packetReceivedFromUpper
attr title "packets received from higher layer, packetBytes"
vector 264 MstClusteringNetwork.node[5].lo[0].lo passedUpPk:vector(packetBytes) ETV
attr interpolationmode none
attr recordingmode vector(packetBytes)
attr source packetSentToUpper
attr title "packets passed to higher layer, packetBytes"
vector 265 MstClusteringNetwork.node[5].lo[0] packetDropInterfaceDown:vector(packetBytes) ETV
attr interpolationmode none
attr recordingmode vector(packetBytes)
attr source packetDropReasonIsInterfaceDown(packetDropped)
attr title "packet drops: interface down, packetBytes"
vector 266 MstClusteringNetwork.node[5].lo[0] packetDropNoCarrier:vector(packetBytes) ETV
attr interpolationmode none
attr recordingmode vector(packetBytes)
attr source packetDropReasonIsNoCarrier(packetDropped)
attr title "packet drops: no carrier, packetBytes"
vector 267 MstClusteringNetwork.node[5].wlan[0].queue queueLength:vector ETV
attr autoWarmupFilter false
attr interpolationmode sample-hold
attr recordingmode vector
attr source "warmup(atomic(constant0(packetPushEnded) + count(packetPushStarted) - count(packetPulled) - count(packetRemoved) - count(packetDropped)))"
attr title "queue length"
attr unit pk
vector 268 MstClusteringNetwork.node[5].wlan[0].queue queueBitLength:vector ETV
attr autoWarmupFilter false
attr interpolationmode sample-hold
attr recordingmode vector
attr source "warmup(atomic(constant0(packetPushEnded) + sum(packetLength(packetPushStarted)) - sum(packetLength(packetPulled)) - sum(packetLength(packetRemoved)) - sum(packetLength(packetDropped))))"
attr title "queue bit length"
attr unit b
vector 269 MstClusteringNetwork.node[5].wlan[0].queue queueingTime:vector ETV
attr interpolationmode none
attr recordingmode vector
attr source queueingTime(packetPulled)
attr title "queueing times"
attr unit s
vector 270 MstClusteringNetwork.node[5].wlan[0].queue incomingPacketLengths:vector ETV
attr interpolationmode none
attr recordingmode vector
attr source packetLength(packetPushStarted)
attr title "incoming packet lengths"
attr unit b
vector 271 MstClusteringNetwork.node[5].wlan[0].queue incomingDataRate:vector ETV
attr interpolationmode linear
attr recordingmode vector
attr source throughput(packetPushStarted)
attr title "incoming datarate"
attr unit bps
vector 272 MstClusteringNetwork.node[5].wlan[0].queue outgoingPacketLengths:vector ETV
attr interpolationmode none
attr recordingmode vector
attr source packetLength(packetPulled)
attr title "outgoing packet lengths"
attr unit b
vector 273 MstClusteringNetwork.node[5].wlan[0].queue outgoingDataRate:vector ETV
attr interpolationmode linear
attr recordingmode vector
attr source throughput(packetPulled)
attr title "outgoing datarate"
attr unit bps
vector 274 MstClusteringNetwork.node[5].wlan[0].queue droppedPacketLengthsQueueOverflow:vector ETV
attr interpolationmode none
attr recordingmode vector
attr source packetLength(packetDropReasonIsQueueOverflow(packetDropped))
attr title "dropped packet lengths: queue overflow"
attr unit b
vector 275 MstClusteringNetwork.node[5].wlan[0].queue flowQueueingTime:vector ETV
attr interpolationmode none
attr recordingmode vector
attr source queueingTime(demuxFlow(packetPulled))
attr title "flow queueing times"
attr unit s
vector 276 MstClusteringNetwork.node[5].wlan[0].queue flowIncomingDataRate:vector ETV
attr interpolationmode linear
attr recordingmode vector
attr source throughput(flowPacketLength(demuxFlow(packetPushStarted)))
attr title "flow specific incoming data rate"
attr unit bps
vector 277 MstClusteringNetwork.node[5].wlan[0].queue flowOutgoingDataRate:vector ETV
attr interpolationmode linear
attr recordingmode vector
attr source throughput(flowPacketLength(demuxFlow(packetPulled)))
attr title "flow specific outgoing data rate"
attr unit bps
vector 278 MstClusteringNetwork.node[5].wlan[0].mac passedUpPk:vector(packetBytes) ETV
attr interpolationmode none
attr recordingmode vector(packetBytes)
attr source packetSentToUpper
attr title "packets passed to higher layer, packetBytes"
vector 279 MstClusteringNetwork.node[5].wlan[0].mac sentDownPk:vector(packetBytes) ETV
attr interpolationmode none
attr recordingmode vector(packetBytes)
attr source packetSentToLower
attr title "packets sent to lower layer, packetBytes"
vector 280 MstClusteringNetwork.node[5].wlan[0].mac rcvdPkFromHl:vector(packetBytes) ETV
attr interpolationmode none
attr recordingmode vector(packetBytes)
attr source packetReceivedFromUpper
attr title "packets received from higher layer, packetBytes"
vector 281 MstClusteringNetwork.node[5].wlan[0].mac rcvdPkFromLl:vector(packetBytes) ETV
attr interpolationmode none
attr recordingmode vector(packetBytes)
attr source packetReceivedFromLower
attr title "packets received from lower layer, packetBytes"
vector 282 MstClusteringNetwork.node[5].wlan[0].mac packetDropIncorrectlyReceived:vector(packetBytes) ETV
attr interpolationmode none
attr recordingmode vector(packetBytes)
attr source packetDropReasonIsIncorrectlyReceived(packetDropped)
attr title "packet drop: incorrectly received, packetBytes"
vector 283 MstClusteringNetwork.node[5].wlan[0].mac packetDropInterfaceDown:vector(packetBytes) ETV
attr interpolationmode none
attr recordingmode vector(packetBytes)
attr source packetDropReasonIsInterfaceDown(packetDropped)
attr title "packet drop: interface down, packetBytes"
vector 284 MstClusteringNetwork.node[5].wlan[0].mac packetDropNotAddressedToUs:vector(packetBytes) ETV
attr interpolationmode none
attr recordingmode vector(packetBytes)
attr source packetDropReasonIsNotAddressedToUs(packetDropped)
attr title "packet drop: not addressed to us, packetBytes"
vector 285 MstClusteringNetwork.node[5].wlan[0].radio.energyConsumer powerConsumption:vector ETV
attr interpolationmode sample-hold
attr recordingmode vector
attr source powerConsumptionChanged
attr title "Power consumption"
attr unit W
vector 286 MstClusteringNetwork.node[5].wlan[0].radio radioMode:vector ETV
attr interpolationmode sample-hold
attr recordingmode vector
attr source radioModeChanged
attr title "Radio mode"
vector 287 MstClusteringNetwork.node[5].wlan[0].radio receptionState:vector ETV
attr interpolationmode sample-hold
attr recordingmode vector
attr source receptionStateChanged
attr title "Radio reception state"
vector 288 MstClusteringNetwork.node[5].wlan[0].radio transmissionState:vector ETV
attr interpolationmode sample-hold
attr recordingmode vector
attr source transmissionStateChanged
attr title "Radio transmission state"
vector 289 MstClusteringNetwork.node[5].wlan[0] packetDropInterfaceDown:vector(packetBytes) ETV
attr interpolationmode none
attr recordingmode vector(packetBytes)
attr source packetDropReasonIsInterfaceDown(packetDropped)
attr title "packet drops: interface down, packetBytes"
vector 290 MstClusteringNetwork.node[5].wlan[0] packetDropNoCarrier:vector(packetBytes) ETV
attr interpolationmode none
attr recordingmode vector(packetBytes)
attr source packetDropReasonIsNoCarrier(packetDropped)
attr title "packet drops: no carrier, packetBytes"
vector 291 MstClusteringNetwork.node[5].ipv4.ip packetDropAddressResolutionFailed:vector(packetBytes) ETV
attr interpolationmode none
attr recordingmode vector(packetBytes)
attr source packetDropReasonIsAddressResolutionFailed(packetDropped)
attr title "packet drop: address resolution failed, packetBytes"
vector 292 MstClusteringNetwork.node[5].ipv4.ip packetDropHopLimitReached:vector(packetBytes) ETV
attr interpolationmode none
attr recordingmode vector(packetBytes)
attr source packetDropReasonIsHopLimitReached(packetDropped)
attr title "packet drop: hop limit reached, packetBytes"
vector 293 MstClusteringNetwork.node[5].ipv4.ip packetDropForwardingDisabled:vector(packetBytes) ETV
attr interpolationmode none
attr recordingmode vector(packetBytes)
attr source packetDropReasonIsForwardingDisabled(packetDropped)
attr title "packet drop: forwarding disabled, packetBytes"
vector 294 MstClusteringNetwork.node[5].ipv4.ip packetDropNoInterfaceFound:vector(packetBytes) ETV
attr interpolationmode none
attr recordingmode vector(packetBytes)
attr source packetDropReasonIsNoInterfaceFound(packetDropped)
attr title "packet drop: no interface found, packetBytes"
vector 295 MstClusteringNetwork.node[5].ipv4.ip packetDropNoRouteFound:vector(packetBytes) ETV
attr interpolationmode none
attr recordingmode vector(packetBytes)
attr source packetDropReasonIsNoRouteFound(packetDropped)
attr title "packet drop: no route found, packetBytes"
vector 296 MstClusteringNetwork.node[5].ipv4.ip packetDropUndefined:vector(packetBytes) ETV
attr interpolationmode none
attr recordingmode vector(packetBytes)
attr source packetDropReasonIsUndefined(packetDropped)
attr title "packet drop: undefined, packetBytes"
vector 297 MstClusteringNetwork.node[5].udp packetSent:vector(packetBytes) ETV
attr interpolationmode none
attr recordingmode vector(packetBytes)
attr source packetSent
attr title "packets sent, packetBytes"
vector 298 MstClusteringNetwork.node[5].udp packetReceived:vector(packetBytes) ETV
attr interpolationmode none
attr recordingmode vector(packetBytes)
attr source packetReceived
attr title "packets received, packetBytes"
vector 299 MstClusteringNetwork.node[5].udp passedUpPk:vector(count) ETV
attr interpolationmode none
attr recordingmode vector(count)
attr source packetSentToUpper
attr title "packets passed up, count"
vector 300 MstClusteringNetwork.node[5].udp droppedPkWrongPort:vector(count) ETV
attr interpolationmode none
attr recordingmode vector(count)
attr source packetDropReasonIsNoPortFound(packetDropped)
attr title "packets dropped (wrong port), count"
vector 301 MstClusteringNetwork.node[5].udp droppedPkBadChecksum:vector(count) ETV
attr interpolationmode none
attr recordingmode vector(count)
attr source packetDropReasonIsIncorrectlyReceived(packetDropped)
attr title "packets dropped (checksum error), count"
vector 302 MstClusteringNetwork.node[5].mstClustering clusterId:vector ETV
attr recordingmode vector
attr title "Cluster ID"
vector 303 MstClusteringNetwork.node[5].mstClustering clusterSize:vector ETV
attr recordingmode vector
attr title "Cluster Size"
vector 304 MstClusteringNetwork.node[5].mstClustering isClusterHead:vector ETV
attr recordingmode vector
attr title "Is Cluster Head"
vector 305 MstClusteringNetwork.node[5].mstClustering reClusteringCount:vector ETV
attr recordingmode vector
attr title "Re-clustering Count"
vector 306 MstClusteringNetwork.node[5].mstClustering controlOverhead:vector ETV
attr recordingmode vector
attr title "Control Overhead"
vector 307 MstClusteringNetwork.node[5].mstClustering clusterStability:vector ETV
attr recordingmode vector
attr title "Cluster Stability Time"
vector 308 MstClusteringNetwork.node[5].mstClustering numNeighbors:vector ETV
attr recordingmode vector
attr title "Number of Neighbors"
vector 309 MstClusteringNetwork.node[5].mstClustering energy:vector ETV
attr recordingmode vector
attr title "Remaining Energy"
vector 310 MstClusteringNetwork.node[5].mstClustering numClusters:vector ETV
attr recordingmode vector
attr title "Number of Clusters"
vector 311 MstClusteringNetwork.node[5].mstClustering mstEdgeCount:vector ETV
attr recordingmode vector
attr title "MST Edge Count"
vector 312 MstClusteringNetwork.node[6].energyStorage powerConsumption:vector ETV
attr interpolationmode sample-hold
attr recordingmode vector
attr source powerConsumptionChanged
attr title "Power consumption"
attr unit W
vector 313 MstClusteringNetwork.node[6].energyStorage powerGeneration:vector ETV
attr interpolationmode sample-hold
attr recordingmode vector
attr source powerGenerationChanged
attr title "Power generation"
attr unit W
vector 314 MstClusteringNetwork.node[6].energyStorage residualEnergyCapacity:vector ETV
attr interpolationmode linear
attr recordingmode vector
attr source residualEnergyCapacityChanged
attr title "Residual energy capacity"
attr unit J
vector 315 MstClusteringNetwork.node[6].lo[0].lo rcvdPkFromHl:vector(packetBytes) ETV
attr interpolationmode none
attr recordingmode vector(packetBytes)
attr source packetReceivedFromUpper
attr title "packets received from higher layer, packetBytes"
vector 316 MstClusteringNetwork.node[6].lo[0].lo passedUpPk:vector(packetBytes) ETV
attr interpolationmode none
attr recordingmode vector(packetBytes)
attr source packetSentToUpper
attr title "packets passed to higher layer, packetBytes"
vector 317 MstClusteringNetwork.node[6].lo[0] packetDropInterfaceDown:vector(packetBytes) ETV
attr interpolationmode none
attr recordingmode vector(packetBytes)
attr source packetDropReasonIsInterfaceDown(packetDropped)
attr title "packet drops: interface down, packetBytes"
vector 318 MstClusteringNetwork.node[6].lo[0] packetDropNoCarrier:vector(packetBytes) ETV
attr interpolationmode none
attr recordingmode vector(packetBytes)
attr source packetDropReasonIsNoCarrier(packetDropped)
attr title "packet drops: no carrier, packetBytes"
vector 319 MstClusteringNetwork.node[6].wlan[0].queue queueLength:vector ETV
attr autoWarmupFilter false
attr interpolationmode sample-hold
attr recordingmode vector
attr source "warmup(atomic(constant0(packetPushEnded) + count(packetPushStarted) - count(packetPulled) - count(packetRemoved) - count(packetDropped)))"
attr title "queue length"
attr unit pk
vector 320 MstClusteringNetwork.node[6].wlan[0].queue queueBitLength:vector ETV
attr autoWarmupFilter false
attr interpolationmode sample-hold
attr recordingmode vector
attr source "warmup(atomic(constant0(packetPushEnded) + sum(packetLength(packetPushStarted)) - sum(packetLength(packetPulled)) - sum(packetLength(packetRemoved)) - sum(packetLength(packetDropped))))"
attr title "queue bit length"
attr unit b
vector 321 MstClusteringNetwork.node[6].wlan[0].queue queueingTime:vector ETV
attr interpolationmode none
attr recordingmode vector
attr source queueingTime(packetPulled)
attr title "queueing times"
attr unit s
vector 322 MstClusteringNetwork.node[6].wlan[0].queue incomingPacketLengths:vector ETV
attr interpolationmode none
attr recordingmode vector
attr source packetLength(packetPushStarted)
[...]
attr interpolationmode none
attr recordingmode vector(packetBytes)
attr source packetDropReasonIsNoCarrier(packetDropped)
attr title "packet drops: no carrier, packetBytes"
vector 967 MstClusteringNetwork.node[18].ipv4.ip packetDropAddressResolutionFailed:vector(packetBytes) ETV
attr interpolationmode none
attr recordingmode vector(packetBytes)
attr source packetDropReasonIsAddressResolutionFailed(packetDropped)
attr title "packet drop: address resolution failed, packetBytes"
vector 968 MstClusteringNetwork.node[18].ipv4.ip packetDropHopLimitReached:vector(packetBytes) ETV
attr interpolationmode none
attr recordingmode vector(packetBytes)
attr source packetDropReasonIsHopLimitReached(packetDropped)
attr title "packet drop: hop limit reached, packetBytes"
vector 969 MstClusteringNetwork.node[18].ipv4.ip packetDropForwardingDisabled:vector(packetBytes) ETV
attr interpolationmode none
attr recordingmode vector(packetBytes)
attr source packetDropReasonIsForwardingDisabled(packetDropped)
attr title "packet drop: forwarding disabled, packetBytes"
vector 970 MstClusteringNetwork.node[18].ipv4.ip packetDropNoInterfaceFound:vector(packetBytes) ETV
attr interpolationmode none
attr recordingmode vector(packetBytes)
attr source packetDropReasonIsNoInterfaceFound(packetDropped)
attr title "packet drop: no interface found, packetBytes"
vector 971 MstClusteringNetwork.node[18].ipv4.ip packetDropNoRouteFound:vector(packetBytes) ETV
attr interpolationmode none
attr recordingmode vector(packetBytes)
attr source packetDropReasonIsNoRouteFound(packetDropped)
attr title "packet drop: no route found, packetBytes"
vector 972 MstClusteringNetwork.node[18].ipv4.ip packetDropUndefined:vector(packetBytes) ETV
attr interpolationmode none
attr recordingmode vector(packetBytes)
attr source packetDropReasonIsUndefined(packetDropped)
attr title "packet drop: undefined, packetBytes"
vector 973 MstClusteringNetwork.node[18].udp packetSent:vector(packetBytes) ETV
attr interpolationmode none
attr recordingmode vector(packetBytes)
attr source packetSent
attr title "packets sent, packetBytes"
vector 974 MstClusteringNetwork.node[18].udp packetReceived:vector(packetBytes) ETV
attr interpolationmode none
attr recordingmode vector(packetBytes)
attr source packetReceived
attr title "packets received, packetBytes"
vector 975 MstClusteringNetwork.node[18].udp passedUpPk:vector(count) ETV
attr interpolationmode none
attr recordingmode vector(count)
attr source packetSentToUpper
attr title "packets passed up, count"
vector 976 MstClusteringNetwork.node[18].udp droppedPkWrongPort:vector(count) ETV
attr interpolationmode none
attr recordingmode vector(count)
attr source packetDropReasonIsNoPortFound(packetDropped)
attr title "packets dropped (wrong port), count"
vector 977 MstClusteringNetwork.node[18].udp droppedPkBadChecksum:vector(count) ETV
attr interpolationmode none
attr recordingmode vector(count)
attr source packetDropReasonIsIncorrectlyReceived(packetDropped)
attr title "packets dropped (checksum error), count"
vector 978 MstClusteringNetwork.node[18].mstClustering clusterId:vector ETV
attr recordingmode vector
attr title "Cluster ID"
vector 979 MstClusteringNetwork.node[18].mstClustering clusterSize:vector ETV
attr recordingmode vector
attr title "Cluster Size"
vector 980 MstClusteringNetwork.node[18].mstClustering isClusterHead:vector ETV
attr recordingmode vector
attr title "Is Cluster Head"
vector 981 MstClusteringNetwork.node[18].mstClustering reClusteringCount:vector ETV
attr recordingmode vector
attr title "Re-clustering Count"
vector 982 MstClusteringNetwork.node[18].mstClustering controlOverhead:vector ETV
attr recordingmode vector
attr title "Control Overhead"
vector 983 MstClusteringNetwork.node[18].mstClustering clusterStability:vector ETV
attr recordingmode vector
attr title "Cluster Stability Time"
vector 984 MstClusteringNetwork.node[18].mstClustering numNeighbors:vector ETV
attr recordingmode vector
attr title "Number of Neighbors"
vector 985 MstClusteringNetwork.node[18].mstClustering energy:vector ETV
attr recordingmode vector
attr title "Remaining Energy"
vector 986 MstClusteringNetwork.node[18].mstClustering numClusters:vector ETV
attr recordingmode vector
attr title "Number of Clusters"
vector 987 MstClusteringNetwork.node[18].mstClustering mstEdgeCount:vector ETV
attr recordingmode vector
attr title "MST Edge Count"
vector 988 MstClusteringNetwork.node[19].energyStorage powerConsumption:vector ETV
attr interpolationmode sample-hold
attr recordingmode vector
attr source powerConsumptionChanged
attr title "Power consumption"
attr unit W
vector 989 MstClusteringNetwork.node[19].energyStorage powerGeneration:vector ETV
attr interpolationmode sample-hold
attr recordingmode vector
attr source powerGenerationChanged
attr title "Power generation"
attr unit W
vector 990 MstClusteringNetwork.node[19].energyStorage residualEnergyCapacity:vector ETV
attr interpolationmode linear
attr recordingmode vector
attr source residualEnergyCapacityChanged
attr title "Residual energy capacity"
attr unit J
vector 991 MstClusteringNetwork.node[19].lo[0].lo rcvdPkFromHl:vector(packetBytes) ETV
attr interpolationmode none
attr recordingmode vector(packetBytes)
attr source packetReceivedFromUpper
attr title "packets received from higher layer, packetBytes"
vector 992 MstClusteringNetwork.node[19].lo[0].lo passedUpPk:vector(packetBytes) ETV
attr interpolationmode none
attr recordingmode vector(packetBytes)
attr source packetSentToUpper
attr title "packets passed to higher layer, packetBytes"
vector 993 MstClusteringNetwork.node[19].lo[0] packetDropInterfaceDown:vector(packetBytes) ETV
attr interpolationmode none
attr recordingmode vector(packetBytes)
attr source packetDropReasonIsInterfaceDown(packetDropped)
attr title "packet drops: interface down, packetBytes"
vector 994 MstClusteringNetwork.node[19].lo[0] packetDropNoCarrier:vector(packetBytes) ETV
attr interpolationmode none
attr recordingmode vector(packetBytes)
attr source packetDropReasonIsNoCarrier(packetDropped)
attr title "packet drops: no carrier, packetBytes"
vector 995 MstClusteringNetwork.node[19].wlan[0].queue queueLength:vector ETV
attr autoWarmupFilter false
attr interpolationmode sample-hold
attr recordingmode vector
attr source "warmup(atomic(constant0(packetPushEnded) + count(packetPushStarted) - count(packetPulled) - count(packetRemoved) - count(packetDropped)))"
attr title "queue length"
attr unit pk
vector 996 MstClusteringNetwork.node[19].wlan[0].queue queueBitLength:vector ETV
attr autoWarmupFilter false
attr interpolationmode sample-hold
attr recordingmode vector
attr source "warmup(atomic(constant0(packetPushEnded) + sum(packetLength(packetPushStarted)) - sum(packetLength(packetPulled)) - sum(packetLength(packetRemoved)) - sum(packetLength(packetDropped))))"
attr title "queue bit length"
attr unit b
vector 997 MstClusteringNetwork.node[19].wlan[0].queue queueingTime:vector ETV
attr interpolationmode none
attr recordingmode vector
attr source queueingTime(packetPulled)
attr title "queueing times"
attr unit s
vector 998 MstClusteringNetwork.node[19].wlan[0].queue incomingPacketLengths:vector ETV
attr interpolationmode none
attr recordingmode vector
attr source packetLength(packetPushStarted)
attr title "incoming packet lengths"
attr unit b
vector 999 MstClusteringNetwork.node[19].wlan[0].queue incomingDataRate:vector ETV
attr interpolationmode linear
attr recordingmode vector
attr source throughput(packetPushStarted)
attr title "incoming datarate"
attr unit bps
vector 1000 MstClusteringNetwork.node[19].wlan[0].queue outgoingPacketLengths:vector ETV
attr interpolationmode none
attr recordingmode vector
attr source packetLength(packetPulled)
attr title "outgoing packet lengths"
attr unit b
vector 1001 MstClusteringNetwork.node[19].wlan[0].queue outgoingDataRate:vector ETV
attr interpolationmode linear
attr recordingmode vector
attr source throughput(packetPulled)
attr title "outgoing datarate"
attr unit bps
vector 1002 MstClusteringNetwork.node[19].wlan[0].queue droppedPacketLengthsQueueOverflow:vector ETV
attr interpolationmode none
attr recordingmode vector
attr source packetLength(packetDropReasonIsQueueOverflow(packetDropped))
attr title "dropped packet lengths: queue overflow"
attr unit b
vector 1003 MstClusteringNetwork.node[19].wlan[0].queue flowQueueingTime:vector ETV
attr interpolationmode none
attr recordingmode vector
attr source queueingTime(demuxFlow(packetPulled))
attr title "flow queueing times"
attr unit s
vector 1004 MstClusteringNetwork.node[19].wlan[0].queue flowIncomingDataRate:vector ETV
attr interpolationmode linear
attr recordingmode vector
attr source throughput(flowPacketLength(demuxFlow(packetPushStarted)))
attr title "flow specific incoming data rate"
attr unit bps
vector 1005 MstClusteringNetwork.node[19].wlan[0].queue flowOutgoingDataRate:vector ETV
attr interpolationmode linear
attr recordingmode vector
attr source throughput(flowPacketLength(demuxFlow(packetPulled)))
attr title "flow specific outgoing data rate"
attr unit bps
vector 1006 MstClusteringNetwork.node[19].wlan[0].mac passedUpPk:vector(packetBytes) ETV
attr interpolationmode none
attr recordingmode vector(packetBytes)
attr source packetSentToUpper
attr title "packets passed to higher layer, packetBytes"
vector 1007 MstClusteringNetwork.node[19].wlan[0].mac sentDownPk:vector(packetBytes) ETV
attr interpolationmode none
attr recordingmode vector(packetBytes)
attr source packetSentToLower
attr title "packets sent to lower layer, packetBytes"
vector 1008 MstClusteringNetwork.node[19].wlan[0].mac rcvdPkFromHl:vector(packetBytes) ETV
attr interpolationmode none
attr recordingmode vector(packetBytes)
attr source packetReceivedFromUpper
attr title "packets received from higher layer, packetBytes"
vector 1009 MstClusteringNetwork.node[19].wlan[0].mac rcvdPkFromLl:vector(packetBytes) ETV
attr interpolationmode none
attr recordingmode vector(packetBytes)
attr source packetReceivedFromLower
attr title "packets received from lower layer, packetBytes"
vector 1010 MstClusteringNetwork.node[19].wlan[0].mac packetDropIncorrectlyReceived:vector(packetBytes) ETV
attr interpolationmode none
attr recordingmode vector(packetBytes)
attr source packetDropReasonIsIncorrectlyReceived(packetDropped)
attr title "packet drop: incorrectly received, packetBytes"
vector 1011 MstClusteringNetwork.node[19].wlan[0].mac packetDropInterfaceDown:vector(packetBytes) ETV
attr interpolationmode none
attr recordingmode vector(packetBytes)
attr source packetDropReasonIsInterfaceDown(packetDropped)
attr title "packet drop: interface down, packetBytes"
vector 1012 MstClusteringNetwork.node[19].wlan[0].mac packetDropNotAddressedToUs:vector(packetBytes) ETV
attr interpolationmode none
attr recordingmode vector(packetBytes)
attr source packetDropReasonIsNotAddressedToUs(packetDropped)
attr title "packet drop: not addressed to us, packetBytes"
vector 1013 MstClusteringNetwork.node[19].wlan[0].radio.energyConsumer powerConsumption:vector ETV
attr interpolationmode sample-hold
attr recordingmode vector
attr source powerConsumptionChanged
attr title "Power consumption"
attr unit W
vector 1014 MstClusteringNetwork.node[19].wlan[0].radio radioMode:vector ETV
attr interpolationmode sample-hold
attr recordingmode vector
attr source radioModeChanged
attr title "Radio mode"
vector 1015 MstClusteringNetwork.node[19].wlan[0].radio receptionState:vector ETV
attr interpolationmode sample-hold
attr recordingmode vector
attr source receptionStateChanged
attr title "Radio reception state"
vector 1016 MstClusteringNetwork.node[19].wlan[0].radio transmissionState:vector ETV
attr interpolationmode sample-hold
attr recordingmode vector
attr source transmissionStateChanged
attr title "Radio transmission state"
vector 1017 MstClusteringNetwork.node[19].wlan[0] packetDropInterfaceDown:vector(packetBytes) ETV
attr interpolationmode none
attr recordingmode vector(packetBytes)
attr source packetDropReasonIsInterfaceDown(packetDropped)
attr title "packet drops: interface down, packetBytes"
vector 1018 MstClusteringNetwork.node[19].wlan[0] packetDropNoCarrier:vector(packetBytes) ETV
attr interpolationmode none
attr recordingmode vector(packetBytes)
attr source packetDropReasonIsNoCarrier(packetDropped)
attr title "packet drops: no carrier, packetBytes"
vector 1019 MstClusteringNetwork.node[19].ipv4.ip packetDropAddressResolutionFailed:vector(packetBytes) ETV
attr interpolationmode none
attr recordingmode vector(packetBytes)
attr source packetDropReasonIsAddressResolutionFailed(packetDropped)
attr title "packet drop: address resolution failed, packetBytes"
vector 1020 MstClusteringNetwork.node[19].ipv4.ip packetDropHopLimitReached:vector(packetBytes) ETV
attr interpolationmode none
attr recordingmode vector(packetBytes)
attr source packetDropReasonIsHopLimitReached(packetDropped)
attr title "packet drop: hop limit reached, packetBytes"
vector 1021 MstClusteringNetwork.node[19].ipv4.ip packetDropForwardingDisabled:vector(packetBytes) ETV
attr interpolationmode none
attr recordingmode vector(packetBytes)
attr source packetDropReasonIsForwardingDisabled(packetDropped)
attr title "packet drop: forwarding disabled, packetBytes"
vector 1022 MstClusteringNetwork.node[19].ipv4.ip packetDropNoInterfaceFound:vector(packetBytes) ETV
attr interpolationmode none
attr recordingmode vector(packetBytes)
attr source packetDropReasonIsNoInterfaceFound(packetDropped)
attr title "packet drop: no interface found, packetBytes"
vector 1023 MstClusteringNetwork.node[19].ipv4.ip packetDropNoRouteFound:vector(packetBytes) ETV
attr interpolationmode none
attr recordingmode vector(packetBytes)
attr source packetDropReasonIsNoRouteFound(packetDropped)
attr title "packet drop: no route found, packetBytes"
vector 1024 MstClusteringNetwork.node[19].ipv4.ip packetDropUndefined:vector(packetBytes) ETV
attr interpolationmode none
attr recordingmode vector(packetBytes)
attr source packetDropReasonIsUndefined(packetDropped)
attr title "packet drop: undefined, packetBytes"
vector 1025 MstClusteringNetwork.node[19].udp packetSent:vector(packetBytes) ETV
attr interpolationmode none
attr recordingmode vector(packetBytes)
attr source packetSent
attr title "packets sent, packetBytes"
vector 1026 MstClusteringNetwork.node[19].udp packetReceived:vector(packetBytes) ETV
attr interpolationmode none
attr recordingmode vector(packetBytes)
attr source packetReceived
attr title "packets received, packetBytes"
vector 1027 MstClusteringNetwork.node[19].udp passedUpPk:vector(count) ETV
attr interpolationmode none
attr recordingmode vector(count)
attr source packetSentToUpper
attr title "packets passed up, count"
vector 1028 MstClusteringNetwork.node[19].udp droppedPkWrongPort:vector(count) ETV
attr interpolationmode none
attr recordingmode vector(count)
attr source packetDropReasonIsNoPortFound(packetDropped)
attr title "packets dropped (wrong port), count"
vector 1029 MstClusteringNetwork.node[19].udp droppedPkBadChecksum:vector(count) ETV
attr interpolationmode none
attr recordingmode vector(count)
attr source packetDropReasonIsIncorrectlyReceived(packetDropped)
attr title "packets dropped (checksum error), count"
vector 1030 MstClusteringNetwork.node[19].mstClustering clusterId:vector ETV
attr recordingmode vector
attr title "Cluster ID"
vector 1031 MstClusteringNetwork.node[19].mstClustering clusterSize:vector ETV
attr recordingmode vector
attr title "Cluster Size"
vector 1032 MstClusteringNetwork.node[19].mstClustering isClusterHead:vector ETV
attr recordingmode vector
attr title "Is Cluster Head"
vector 1033 MstClusteringNetwork.node[19].mstClustering reClusteringCount:vector ETV
attr recordingmode vector
attr title "Re-clustering Count"
vector 1034 MstClusteringNetwork.node[19].mstClustering controlOverhead:vector ETV
attr recordingmode vector
attr title "Control Overhead"
vector 1035 MstClusteringNetwork.node[19].mstClustering clusterStability:vector ETV
attr recordingmode vector
attr title "Cluster Stability Time"
vector 1036 MstClusteringNetwork.node[19].mstClustering numNeighbors:vector ETV
attr recordingmode vector
attr title "Number of Neighbors"
vector 1037 MstClusteringNetwork.node[19].mstClustering energy:vector ETV
attr recordingmode vector
attr title "Remaining Energy"
vector 1038 MstClusteringNetwork.node[19].mstClustering numClusters:vector ETV
attr recordingmode vector
attr title "Number of Clusters"
vector 1039 MstClusteringNetwork.node[19].mstClustering mstEdgeCount:vector ETV
attr recordingmode vector
attr title "MST Edge Count"
7	246874 45 0 0 10 10 5 0 0 0 0
8	246919 45 0 0 10 10 5 0 0 0 0
39	246964 10 0 0 10 10 1 0 0 0 0
40	246974 10 0 0 10 10 1 0 0 0 0
41	246984 10 0 0 10 10 1 0 0 0 0
59	246994 50 0 0 10 10 5 0 0 0 0
60	247044 50 0 0 10 10 5 0 0 0 0
91	247094 10 0 0 10 10 1 0 0 0 0
92	247104 10 0 0 10 10 1 0 0 0 0
93	247114 10 0 0 10 10 1 0 0 0 0
111	247124 55 0 0 10 10 5 0 0 0 0
112	247179 55 0 0 10 10 5 0 0 0 0
143	247234 11 0 0 10 10 1 0 0 0 0
144	247245 11 0 0 10 10 1 0 0 0 0
145	247256 11 0 0 10 10 1 0 0 0 0
163	247267 55 0 0 10 10 5 0 0 0 0
164	247322 55 0 0 10 10 5 0 0 0 0
195	247377 11 0 0 10 10 1 0 0 0 0
196	247388 11 0 0 10 10 1 0 0 0 0
197	247399 11 0 0 10 10 1 0 0 0 0
215	247410 55 0 0 10 10 5 0 0 0 0
216	247465 55 0 0 10 10 5 0 0 0 0
247	247520 11 0 0 10 10 1 0 0 0 0
248	247531 11 0 0 10 10 1 0 0 0 0
249	247542 11 0 0 10 10 1 0 0 0 0
267	247553 55 0 0 10 10 5 0 0 0 0
268	247608 55 0 0 10 10 5 0 0 0 0
299	247663 11 0 0 10 10 1 0 0 0 0
300	247674 11 0 0 10 10 1 0 0 0 0
301	247685 11 0 0 10 10 1 0 0 0 0
319	247696 55 0 0 10 10 5 0 0 0 0
320	247751 55 0 0 10 10 5 0 0 0 0
351	247806 11 0 0 10 10 1 0 0 0 0
352	247817 11 0 0 10 10 1 0 0 0 0
353	247828 11 0 0 10 10 1 0 0 0 0
371	247839 55 0 0 10 10 5 0 0 0 0
372	247894 55 0 0 10 10 5 0 0 0 0
403	247949 11 0 0 10 10 1 0 0 0 0
404	247960 11 0 0 10 10 1 0 0 0 0
405	247971 11 0 0 10 10 1 0 0 0 0
423	247982 55 0 0 10 10 5 0 0 0 0
424	248037 55 0 0 10 10 5 0 0 0 0
455	248092 11 0 0 10 10 1 0 0 0 0
456	248103 11 0 0 10 10 1 0 0 0 0
457	248114 11 0 0 10 10 1 0 0 0 0
475	248125 55 0 0 10 10 5 0 0 0 0
476	248180 55 0 0 10 10 5 0 0 0 0
507	248235 11 0 0 10 10 1 0 0 0 0
508	248246 11 0 0 10 10 1 0 0 0 0
509	248257 11 0 0 10 10 1 0 0 0 0
527	248268 55 0 0 10 10 5 0 0 0 0
528	248323 55 0 0 10 10 5 0 0 0 0
559	248378 11 0 0 10 10 1 0 0 0 0
560	248389 11 0 0 10 10 1 0 0 0 0
561	248400 11 0 0 10 10 1 0 0 0 0
579	248411 55 0 0 10 10 5 0 0 0 0
580	248466 55 0 0 10 10 5 0 0 0 0
611	248521 11 0 0 10 10 1 0 0 0 0
612	248532 11 0 0 10 10 1 0 0 0 0
613	248543 11 0 0 10 10 1 0 0 0 0
631	248554 55 0 0 10 10 5 0 0 0 0
632	248609 55 0 0 10 10 5 0 0 0 0
663	248664 11 0 0 10 10 1 0 0 0 0
664	248675 11 0 0 10 10 1 0 0 0 0
665	248686 11 0 0 10 10 1 0 0 0 0
683	248697 55 0 0 10 10 5 0 0 0 0
684	248752 55 0 0 10 10 5 0 0 0 0
715	248807 11 0 0 10 10 1 0 0 0 0
716	248818 11 0 0 10 10 1 0 0 0 0
717	248829 11 0 0 10 10 1 0 0 0 0
735	248840 55 0 0 10 10 5 0 0 0 0
736	248895 55 0 0 10 10 5 0 0 0 0
767	248950 11 0 0 10 10 1 0 0 0 0
768	248961 11 0 0 10 10 1 0 0 0 0
769	248972 11 0 0 10 10 1 0 0 0 0
787	248983 55 0 0 10 10 5 0 0 0 0
788	249038 55 0 0 10 10 5 0 0 0 0
819	249093 11 0 0 10 10 1 0 0 0 0
820	249104 11 0 0 10 10 1 0 0 0 0
821	249115 11 0 0 10 10 1 0 0 0 0
839	249126 55 0 0 10 10 5 0 0 0 0
840	249181 55 0 0 10 10 5 0 0 0 0
871	249236 11 0 0 10 10 1 0 0 0 0
872	249247 11 0 0 10 10 1 0 0 0 0
873	249258 11 0 0 10 10 1 0 0 0 0
891	249269 55 0 0 10 10 5 0 0 0 0
892	249324 55 0 0 10 10 5 0 0 0 0
923	249379 11 0 0 10 10 1 0 0 0 0
924	249390 11 0 0 10 10 1 0 0 0 0
925	249401 11 0 0 10 10 1 0 0 0 0
943	249412 55 0 0 10 10 5 0 0 0 0
944	249467 55 0 0 10 10 5 0 0 0 0
975	249522 11 0 0 10 10 1 0 0 0 0
976	249533 11 0 0 10 10 1 0 0 0 0
977	249544 11 0 0 10 10 1 0 0 0 0
995	249555 55 0 0 10 10 5 0 0 0 0
996	249610 55 0 0 10 10 5 0 0 0 0
1027	249665 12 0 0 10 10 1 0 0 0 0
1028	249677 12 0 0 10 10 1 0 0 0 0
1029	249689 12 0 0 10 10 1 0 0 0 0

