version 3
run Topology_Large-0-20260101-19:15:22-19647
attr configname Topology_Large
attr datetime 20260101-19:15:22
attr datetimef 20260101-191522
attr experiment Topology_Large
attr inifile omnetpp.ini
attr iterationvars ""
attr iterationvarsd ""
attr iterationvarsf ""
attr measurement ""
attr network mstclustering.MstClusteringNetwork
attr processid 19647
attr repetition 0
attr replication #0
attr resultdir results
attr runnumber 0
attr seedset 0
config image-path ../inet4.5/images
config description "Large Network (50 nodes)"
config extends General
config *.numNodes 50
config *.playgroundSizeX 1200m
config *.playgroundSizeY 1200m
config *.node[*].mstClustering.maxClusters 10
config description "MST-based Clustering - Base Configuration"
config network mstclustering.MstClusteringNetwork
config sim-time-limit 300s
config warmup-period 10s
config num-rngs 3
config **.mobility.rng-0 1
config **.wlan[*].mac.rng-0 2
config record-eventlog false
config **.vector-recording true
config **.scalar-recording true
config *.numNodes 20
config *.playgroundSizeX 600m
config *.playgroundSizeY 600m
config *.configurator.config "xml(\"<config><interface hosts='**' address='10.x.x.x' netmask='255.x.x.x'/><autoroute metric='hopCount'/></config>\")"
config *.node[*].ipv4.arp.typename GlobalArp
config *.node[*].mstClustering.helloInterval 1s
config *.node[*].mstClustering.mstUpdateInterval 2s
config *.node[*].mstClustering.clusterTimeout 5s
config *.node[*].mstClustering.enableDynamicMst true
config *.node[*].mstClustering.maxClusters 5
config *.node[*].mstClustering.maxClusterSize 10
config *.node[*].mstClustering.clusterThreshold 0.5
config *.node[*].mstClustering.edgeWeightAlpha 0.5
config *.node[*].mstClustering.edgeWeightBeta 0.3
config *.node[*].mstClustering.edgeWeightGamma 0.2
config *.node[*].mstClustering.communicationRange 300m
config *.node[*].mobility.typename MassMobility
config *.node[*].mobility.constraintAreaMinX 0m
config *.node[*].mobility.constraintAreaMinY 0m
config *.node[*].mobility.constraintAreaMinZ 0m
config *.node[*].mobility.constraintAreaMaxX 600m
config *.node[*].mobility.constraintAreaMaxY 600m
config *.node[*].mobility.constraintAreaMaxZ 0m
config *.node[*].mobility.initFromDisplayString false
config *.node[*].mobility.changeInterval "truncnormal(2s, 0.5s)"
config *.node[*].mobility.angleDelta "normal(0deg, 30deg)"
config *.node[*].mobility.speed "truncnormal(10mps, 5mps)"
config *.radioMedium.typename UnitDiskRadioMedium
config *.node[*].wlan[*].typename AckingWirelessInterface
config *.node[*].wlan[*].radio.typename UnitDiskRadio
config *.node[*].wlan[*].radio.transmitter.communicationRange 300m
config *.node[*].wlan[*].radio.transmitter.interferenceRange 500m
config *.node[*].wlan[*].radio.transmitter.detectionRange 600m
config *.node[*].wlan[*].radio.receiver.ignoreInterference false
config *.node[*].wlan[*].mac.headerLength 23B
config *.node[*].**.bitrate 1Mbps
config *.node[*].hasStatus true
config *.node[*].energyStorage.typename SimpleEpEnergyStorage
config *.node[*].energyStorage.nominalCapacity 10000J
config *.node[*].energyStorage.initialCapacity "uniform(5000J, 10000J)"
config *.node[*].wlan[*].radio.energyConsumer.typename StateBasedEpEnergyConsumer
config *.node[*].wlan[*].radio.energyConsumer.offPowerConsumption 0mW
config *.node[*].wlan[*].radio.energyConsumer.sleepPowerConsumption 1mW
config *.node[*].wlan[*].radio.energyConsumer.switchingPowerConsumption 5mW
config *.node[*].wlan[*].radio.energyConsumer.receiverIdlePowerConsumption 2mW
config *.node[*].wlan[*].radio.energyConsumer.receiverBusyPowerConsumption 5mW
config *.node[*].wlan[*].radio.energyConsumer.receiverReceivingPowerConsumption 10mW
config *.node[*].wlan[*].radio.energyConsumer.transmitterIdlePowerConsumption 2mW
config *.node[*].wlan[*].radio.energyConsumer.transmitterTransmittingPowerConsumption 100mW
config *.hasVisualizer true
config *.visualizer.*.mobilityVisualizer.displayMobility true
config *.visualizer.*.mobilityVisualizer.displayPositions true
config *.visualizer.*.mobilityVisualizer.displayOrientations false
config *.visualizer.*.mobilityVisualizer.displayVelocities true
config *.visualizer.*.mobilityVisualizer.displayMovementTrails true
config *.visualizer.*.mediumVisualizer.displaySignals false
config *.visualizer.*.mediumVisualizer.displayTransmissions false
config *.visualizer.*.mediumVisualizer.displayReceptions false
config *.visualizer.*.physicalLinkVisualizer.displayLinks true
config *.visualizer.*.physicalLinkVisualizer.lineColor "\"dark\""
config *.visualizer.*.dataLinkVisualizer.displayLinks true
config *.visualizer.*.networkRouteVisualizer.displayRoutes true

vector 0 MstClusteringNetwork.node[0].energyStorage powerConsumption:vector ETV
attr interpolationmode sample-hold
attr recordingmode vector
attr source powerConsumptionChanged
attr title "Power consumption"
attr unit W
vector 1 MstClusteringNetwork.node[0].energyStorage powerGeneration:vector ETV
attr interpolationmode sample-hold
attr recordingmode vector
attr source powerGenerationChanged
attr title "Power generation"
attr unit W
vector 2 MstClusteringNetwork.node[0].energyStorage residualEnergyCapacity:vector ETV
attr interpolationmode linear
attr recordingmode vector
attr source residualEnergyCapacityChanged
attr title "Residual energy capacity"
attr unit J
vector 3 MstClusteringNetwork.node[0].lo[0].lo rcvdPkFromHl:vector(packetBytes) ETV
attr interpolationmode none
attr recordingmode vector(packetBytes)
attr source packetReceivedFromUpper
attr title "packets received from higher layer, packetBytes"
vector 4 MstClusteringNetwork.node[0].lo[0].lo passedUpPk:vector(packetBytes) ETV
attr interpolationmode none
attr recordingmode vector(packetBytes)
attr source packetSentToUpper
attr title "packets passed to higher layer, packetBytes"
vector 5 MstClusteringNetwork.node[0].lo[0] packetDropInterfaceDown:vector(packetBytes) ETV
attr interpolationmode none
attr recordingmode vector(packetBytes)
attr source packetDropReasonIsInterfaceDown(packetDropped)
attr title "packet drops: interface down, packetBytes"
vector 6 MstClusteringNetwork.node[0].lo[0] packetDropNoCarrier:vector(packetBytes) ETV
attr interpolationmode none
attr recordingmode vector(packetBytes)
attr source packetDropReasonIsNoCarrier(packetDropped)
attr title "packet drops: no carrier, packetBytes"
vector 7 MstClusteringNetwork.node[0].wlan[0].queue queueLength:vector ETV
attr autoWarmupFilter false
attr interpolationmode sample-hold
attr recordingmode vector
attr source "warmup(atomic(constant0(packetPushEnded) + count(packetPushStarted) - count(packetPulled) - count(packetRemoved) - count(packetDropped)))"
attr title "queue length"
attr unit pk
vector 8 MstClusteringNetwork.node[0].wlan[0].queue queueBitLength:vector ETV
attr autoWarmupFilter false
attr interpolationmode sample-hold
attr recordingmode vector
attr source "warmup(atomic(constant0(packetPushEnded) + sum(packetLength(packetPushStarted)) - sum(packetLength(packetPulled)) - sum(packetLength(packetRemoved)) - sum(packetLength(packetDropped))))"
attr title "queue bit length"
attr unit b
vector 9 MstClusteringNetwork.node[0].wlan[0].queue queueingTime:vector ETV
attr interpolationmode none
attr recordingmode vector
attr source queueingTime(packetPulled)
attr title "queueing times"
attr unit s
vector 10 MstClusteringNetwork.node[0].wlan[0].queue incomingPacketLengths:vector ETV
attr interpolationmode none
attr recordingmode vector
attr source packetLength(packetPushStarted)
attr title "incoming packet lengths"
attr unit b
vector 11 MstClusteringNetwork.node[0].wlan[0].queue incomingDataRate:vector ETV
attr interpolationmode linear
attr recordingmode vector
attr source throughput(packetPushStarted)
attr title "incoming datarate"
attr unit bps
vector 12 MstClusteringNetwork.node[0].wlan[0].queue outgoingPacketLengths:vector ETV
attr interpolationmode none
attr recordingmode vector
attr source packetLength(packetPulled)
attr title "outgoing packet lengths"
attr unit b
vector 13 MstClusteringNetwork.node[0].wlan[0].queue outgoingDataRate:vector ETV
attr interpolationmode linear
attr recordingmode vector
attr source throughput(packetPulled)
attr title "outgoing datarate"
attr unit bps
vector 14 MstClusteringNetwork.node[0].wlan[0].queue droppedPacketLengthsQueueOverflow:vector ETV
attr interpolationmode none
attr recordingmode vector
attr source packetLength(packetDropReasonIsQueueOverflow(packetDropped))
attr title "dropped packet lengths: queue overflow"
attr unit b
vector 15 MstClusteringNetwork.node[0].wlan[0].queue flowQueueingTime:vector ETV
attr interpolationmode none
attr recordingmode vector
attr source queueingTime(demuxFlow(packetPulled))
attr title "flow queueing times"
attr unit s
vector 16 MstClusteringNetwork.node[0].wlan[0].queue flowIncomingDataRate:vector ETV
attr interpolationmode linear
attr recordingmode vector
attr source throughput(flowPacketLength(demuxFlow(packetPushStarted)))
attr title "flow specific incoming data rate"
attr unit bps
vector 17 MstClusteringNetwork.node[0].wlan[0].queue flowOutgoingDataRate:vector ETV
attr interpolationmode linear
attr recordingmode vector
attr source throughput(flowPacketLength(demuxFlow(packetPulled)))
attr title "flow specific outgoing data rate"
attr unit bps
vector 18 MstClusteringNetwork.node[0].wlan[0].mac passedUpPk:vector(packetBytes) ETV
attr interpolationmode none
attr recordingmode vector(packetBytes)
attr source packetSentToUpper
attr title "packets passed to higher layer, packetBytes"
vector 19 MstClusteringNetwork.node[0].wlan[0].mac sentDownPk:vector(packetBytes) ETV
attr interpolationmode none
attr recordingmode vector(packetBytes)
attr source packetSentToLower
attr title "packets sent to lower layer, packetBytes"
vector 20 MstClusteringNetwork.node[0].wlan[0].mac rcvdPkFromHl:vector(packetBytes) ETV
attr interpolationmode none
attr recordingmode vector(packetBytes)
attr source packetReceivedFromUpper
attr title "packets received from higher layer, packetBytes"
vector 21 MstClusteringNetwork.node[0].wlan[0].mac rcvdPkFromLl:vector(packetBytes) ETV
attr interpolationmode none
attr recordingmode vector(packetBytes)
attr source packetReceivedFromLower
attr title "packets received from lower layer, packetBytes"
vector 22 MstClusteringNetwork.node[0].wlan[0].mac packetDropIncorrectlyReceived:vector(packetBytes) ETV
attr interpolationmode none
attr recordingmode vector(packetBytes)
attr source packetDropReasonIsIncorrectlyReceived(packetDropped)
attr title "packet drop: incorrectly received, packetBytes"
vector 23 MstClusteringNetwork.node[0].wlan[0].mac packetDropInterfaceDown:vector(packetBytes) ETV
attr interpolationmode none
attr recordingmode vector(packetBytes)
attr source packetDropReasonIsInterfaceDown(packetDropped)
attr title "packet drop: interface down, packetBytes"
vector 24 MstClusteringNetwork.node[0].wlan[0].mac packetDropNotAddressedToUs:vector(packetBytes) ETV
attr interpolationmode none
attr recordingmode vector(packetBytes)
attr source packetDropReasonIsNotAddressedToUs(packetDropped)
attr title "packet drop: not addressed to us, packetBytes"
vector 25 MstClusteringNetwork.node[0].wlan[0].radio.energyConsumer powerConsumption:vector ETV
attr interpolationmode sample-hold
attr recordingmode vector
attr source powerConsumptionChanged
attr title "Power consumption"
attr unit W
vector 26 MstClusteringNetwork.node[0].wlan[0].radio radioMode:vector ETV
attr interpolationmode sample-hold
attr recordingmode vector
attr source radioModeChanged
attr title "Radio mode"
vector 27 MstClusteringNetwork.node[0].wlan[0].radio receptionState:vector ETV
attr interpolationmode sample-hold
attr recordingmode vector
attr source receptionStateChanged
attr title "Radio reception state"
vector 28 MstClusteringNetwork.node[0].wlan[0].radio transmissionState:vector ETV
attr interpolationmode sample-hold
attr recordingmode vector
attr source transmissionStateChanged
attr title "Radio transmission state"
vector 29 MstClusteringNetwork.node[0].wlan[0] packetDropInterfaceDown:vector(packetBytes) ETV
attr interpolationmode none
attr recordingmode vector(packetBytes)
attr source packetDropReasonIsInterfaceDown(packetDropped)
attr title "packet drops: interface down, packetBytes"
vector 30 MstClusteringNetwork.node[0].wlan[0] packetDropNoCarrier:vector(packetBytes) ETV
attr interpolationmode none
attr recordingmode vector(packetBytes)
attr source packetDropReasonIsNoCarrier(packetDropped)
attr title "packet drops: no carrier, packetBytes"
vector 31 MstClusteringNetwork.node[0].ipv4.ip packetDropAddressResolutionFailed:vector(packetBytes) ETV
attr interpolationmode none
attr recordingmode vector(packetBytes)
attr source packetDropReasonIsAddressResolutionFailed(packetDropped)
attr title "packet drop: address resolution failed, packetBytes"
vector 32 MstClusteringNetwork.node[0].ipv4.ip packetDropHopLimitReached:vector(packetBytes) ETV
attr interpolationmode none
attr recordingmode vector(packetBytes)
attr source packetDropReasonIsHopLimitReached(packetDropped)
attr title "packet drop: hop limit reached, packetBytes"
vector 33 MstClusteringNetwork.node[0].ipv4.ip packetDropForwardingDisabled:vector(packetBytes) ETV
attr interpolationmode none
attr recordingmode vector(packetBytes)
attr source packetDropReasonIsForwardingDisabled(packetDropped)
attr title "packet drop: forwarding disabled, packetBytes"
vector 34 MstClusteringNetwork.node[0].ipv4.ip packetDropNoInterfaceFound:vector(packetBytes) ETV
attr interpolationmode none
attr recordingmode vector(packetBytes)
attr source packetDropReasonIsNoInterfaceFound(packetDropped)
attr title "packet drop: no interface found, packetBytes"
vector 35 MstClusteringNetwork.node[0].ipv4.ip packetDropNoRouteFound:vector(packetBytes) ETV
attr interpolationmode none
attr recordingmode vector(packetBytes)
attr source packetDropReasonIsNoRouteFound(packetDropped)
attr title "packet drop: no route found, packetBytes"
vector 36 MstClusteringNetwork.node[0].ipv4.ip packetDropUndefined:vector(packetBytes) ETV
attr interpolationmode none
attr recordingmode vector(packetBytes)
attr source packetDropReasonIsUndefined(packetDropped)
attr title "packet drop: undefined, packetBytes"
vector 37 MstClusteringNetwork.node[0].udp packetSent:vector(packetBytes) ETV
attr interpolationmode none
attr recordingmode vector(packetBytes)
attr source packetSent
attr title "packets sent, packetBytes"
vector 38 MstClusteringNetwork.node[0].udp packetReceived:vector(packetBytes) ETV
attr interpolationmode none
attr recordingmode vector(packetBytes)
attr source packetReceived
attr title "packets received, packetBytes"
vector 39 MstClusteringNetwork.node[0].udp passedUpPk:vector(count) ETV
attr interpolationmode none
attr recordingmode vector(count)
attr source packetSentToUpper
attr title "packets passed up, count"
vector 40 MstClusteringNetwork.node[0].udp droppedPkWrongPort:vector(count) ETV
attr interpolationmode none
attr recordingmode vector(count)
attr source packetDropReasonIsNoPortFound(packetDropped)
attr title "packets dropped (wrong port), count"
vector 41 MstClusteringNetwork.node[0].udp droppedPkBadChecksum:vector(count) ETV
attr interpolationmode none
attr recordingmode vector(count)
attr source packetDropReasonIsIncorrectlyReceived(packetDropped)
attr title "packets dropped (checksum error), count"
vector 42 MstClusteringNetwork.node[0].mstClustering clusterId:vector ETV
attr recordingmode vector
attr title "Cluster ID"
vector 43 MstClusteringNetwork.node[0].mstClustering clusterSize:vector ETV
attr recordingmode vector
attr title "Cluster Size"
vector 44 MstClusteringNetwork.node[0].mstClustering isClusterHead:vector ETV
attr recordingmode vector
attr title "Is Cluster Head"
vector 45 MstClusteringNetwork.node[0].mstClustering reClusteringCount:vector ETV
attr recordingmode vector
attr title "Re-clustering Count"
vector 46 MstClusteringNetwork.node[0].mstClustering controlOverhead:vector ETV
attr recordingmode vector
attr title "Control Overhead"
vector 47 MstClusteringNetwork.node[0].mstClustering clusterStability:vector ETV
attr recordingmode vector
attr title "Cluster Stability Time"
vector 48 MstClusteringNetwork.node[0].mstClustering numNeighbors:vector ETV
attr recordingmode vector
attr title "Number of Neighbors"
vector 49 MstClusteringNetwork.node[0].mstClustering energy:vector ETV
attr recordingmode vector
attr title "Remaining Energy"
vector 50 MstClusteringNetwork.node[0].mstClustering numClusters:vector ETV
attr recordingmode vector
attr title "Number of Clusters"
vector 51 MstClusteringNetwork.node[0].mstClustering mstEdgeCount:vector ETV
attr recordingmode vector
attr title "MST Edge Count"
vector 52 MstClusteringNetwork.node[1].energyStorage powerConsumption:vector ETV
attr interpolationmode sample-hold
attr recordingmode vector
attr source powerConsumptionChanged
attr title "Power consumption"
attr unit W
vector 53 MstClusteringNetwork.node[1].energyStorage powerGeneration:vector ETV
attr interpolationmode sample-hold
attr recordingmode vector
attr source powerGenerationChanged
attr title "Power generation"
attr unit W
vector 54 MstClusteringNetwork.node[1].energyStorage residualEnergyCapacity:vector ETV
attr interpolationmode linear
attr recordingmode vector
attr source residualEnergyCapacityChanged
attr title "Residual energy capacity"
attr unit J
vector 55 MstClusteringNetwork.node[1].lo[0].lo rcvdPkFromHl:vector(packetBytes) ETV
attr interpolationmode none
attr recordingmode vector(packetBytes)
attr source packetReceivedFromUpper
attr title "packets received from higher layer, packetBytes"
vector 56 MstClusteringNetwork.node[1].lo[0].lo passedUpPk:vector(packetBytes) ETV
attr interpolationmode none
attr recordingmode vector(packetBytes)
attr source packetSentToUpper
attr title "packets passed to higher layer, packetBytes"
vector 57 MstClusteringNetwork.node[1].lo[0] packetDropInterfaceDown:vector(packetBytes) ETV
attr interpolationmode none
attr recordingmode vector(packetBytes)
attr source packetDropReasonIsInterfaceDown(packetDropped)
attr title "packet drops: interface down, packetBytes"
vector 58 MstClusteringNetwork.node[1].lo[0] packetDropNoCarrier:vector(packetBytes) ETV
attr interpolationmode none
attr recordingmode vector(packetBytes)
attr source packetDropReasonIsNoCarrier(packetDropped)
attr title "packet drops: no carrier, packetBytes"
vector 59 MstClusteringNetwork.node[1].wlan[0].queue queueLength:vector ETV
attr autoWarmupFilter false
attr interpolationmode sample-hold
attr recordingmode vector
attr source "warmup(atomic(constant0(packetPushEnded) + count(packetPushStarted) - count(packetPulled) - count(packetRemoved) - count(packetDropped)))"
attr title "queue length"
attr unit pk
vector 60 MstClusteringNetwork.node[1].wlan[0].queue queueBitLength:vector ETV
attr autoWarmupFilter false
attr interpolationmode sample-hold
attr recordingmode vector
attr source "warmup(atomic(constant0(packetPushEnded) + sum(packetLength(packetPushStarted)) - sum(packetLength(packetPulled)) - sum(packetLength(packetRemoved)) - sum(packetLength(packetDropped))))"
attr title "queue bit length"
attr unit b
vector 61 MstClusteringNetwork.node[1].wlan[0].queue queueingTime:vector ETV
attr interpolationmode none
attr recordingmode vector
attr source queueingTime(packetPulled)
attr title "queueing times"
attr unit s
vector 62 MstClusteringNetwork.node[1].wlan[0].queue incomingPacketLengths:vector ETV
attr interpolationmode none
attr recordingmode vector
attr source packetLength(packetPushStarted)
attr title "incoming packet lengths"
attr unit b
vector 63 MstClusteringNetwork.node[1].wlan[0].queue incomingDataRate:vector ETV
attr interpolationmode linear
attr recordingmode vector
attr source throughput(packetPushStarted)
attr title "incoming datarate"
attr unit bps
vector 64 MstClusteringNetwork.node[1].wlan[0].queue outgoingPacketLengths:vector ETV
attr interpolationmode none
attr recordingmode vector
attr source packetLength(packetPulled)
attr title "outgoing packet lengths"
attr unit b
vector 65 MstClusteringNetwork.node[1].wlan[0].queue outgoingDataRate:vector ETV
attr interpolationmode linear
attr recordingmode vector
attr source throughput(packetPulled)
attr title "outgoing datarate"
attr unit bps
vector 66 MstClusteringNetwork.node[1].wlan[0].queue droppedPacketLengthsQueueOverflow:vector ETV
attr interpolationmode none
attr recordingmode vector
attr source packetLength(packetDropReasonIsQueueOverflow(packetDropped))
attr title "dropped packet lengths: queue overflow"
attr unit b
vector 67 MstClusteringNetwork.node[1].wlan[0].queue flowQueueingTime:vector ETV
attr interpolationmode none
attr recordingmode vector
attr source queueingTime(demuxFlow(packetPulled))
attr title "flow queueing times"
attr unit s
vector 68 MstClusteringNetwork.node[1].wlan[0].queue flowIncomingDataRate:vector ETV
attr interpolationmode linear
attr recordingmode vector
attr source throughput(flowPacketLength(demuxFlow(packetPushStarted)))
attr title "flow specific incoming data rate"
attr unit bps
vector 69 MstClusteringNetwork.node[1].wlan[0].queue flowOutgoingDataRate:vector ETV
attr interpolationmode linear
attr recordingmode vector
attr source throughput(flowPacketLength(demuxFlow(packetPulled)))
attr title "flow specific outgoing data rate"
attr unit bps
vector 70 MstClusteringNetwork.node[1].wlan[0].mac passedUpPk:vector(packetBytes) ETV
attr interpolationmode none
attr recordingmode vector(packetBytes)
attr source packetSentToUpper
attr title "packets passed to higher layer, packetBytes"
vector 71 MstClusteringNetwork.node[1].wlan[0].mac sentDownPk:vector(packetBytes) ETV
attr interpolationmode none
attr recordingmode vector(packetBytes)
attr source packetSentToLower
attr title "packets sent to lower layer, packetBytes"
vector 72 MstClusteringNetwork.node[1].wlan[0].mac rcvdPkFromHl:vector(packetBytes) ETV
attr interpolationmode none
attr recordingmode vector(packetBytes)
attr source packetReceivedFromUpper
attr title "packets received from higher layer, packetBytes"
vector 73 MstClusteringNetwork.node[1].wlan[0].mac rcvdPkFromLl:vector(packetBytes) ETV
attr interpolationmode none
attr recordingmode vector(packetBytes)
attr source packetReceivedFromLower
attr title "packets received from lower layer, packetBytes"
vector 74 MstClusteringNetwork.node[1].wlan[0].mac packetDropIncorrectlyReceived:vector(packetBytes) ETV
attr interpolationmode none
attr recordingmode vector(packetBytes)
attr source packetDropReasonIsIncorrectlyReceived(packetDropped)
attr title "packet drop: incorrectly received, packetBytes"
vector 75 MstClusteringNetwork.node[1].wlan[0].mac packetDropInterfaceDown:vector(packetBytes) ETV
attr interpolationmode none
attr recordingmode vector(packetBytes)
attr source packetDropReasonIsInterfaceDown(packetDropped)
attr title "packet drop: interface down, packetBytes"
vector 76 MstClusteringNetwork.node[1].wlan[0].mac packetDropNotAddressedToUs:vector(packetBytes) ETV
attr interpolationmode none
attr recordingmode vector(packetBytes)
attr source packetDropReasonIsNotAddressedToUs(packetDropped)
attr title "packet drop: not addressed to us, packetBytes"
vector 77 MstClusteringNetwork.node[1].wlan[0].radio.energyConsumer powerConsumption:vector ETV
attr interpolationmode sample-hold
attr recordingmode vector
attr source powerConsumptionChanged
attr title "Power consumption"
attr unit W
vector 78 MstClusteringNetwork.node[1].wlan[0].radio radioMode:vector ETV
attr interpolationmode sample-hold
attr recordingmode vector
attr source radioModeChanged
attr title "Radio mode"
vector 79 MstClusteringNetwork.node[1].wlan[0].radio receptionState:vector ETV
attr interpolationmode sample-hold
attr recordingmode vector
attr source receptionStateChanged
attr title "Radio reception state"
vector 80 MstClusteringNetwork.node[1].wlan[0].radio transmissionState:vector ETV
attr interpolationmode sample-hold
attr recordingmode vector
attr source transmissionStateChanged
attr title "Radio transmission state"
vector 81 MstClusteringNetwork.node[1].wlan[0] packetDropInterfaceDown:vector(packetBytes) ETV
attr interpolationmode none
attr recordingmode vector(packetBytes)
attr source packetDropReasonIsInterfaceDown(packetDropped)
attr title "packet drops: interface down, packetBytes"
vector 82 MstClusteringNetwork.node[1].wlan[0] packetDropNoCarrier:vector(packetBytes) ETV
attr interpolationmode none
attr recordingmode vector(packetBytes)
attr source packetDropReasonIsNoCarrier(packetDropped)
attr title "packet drops: no carrier, packetBytes"
vector 83 MstClusteringNetwork.node[1].ipv4.ip packetDropAddressResolutionFailed:vector(packetBytes) ETV
attr interpolationmode none
attr recordingmode vector(packetBytes)
attr source packetDropReasonIsAddressResolutionFailed(packetDropped)
attr title "packet drop: address resolution failed, packetBytes"
vector 84 MstClusteringNetwork.node[1].ipv4.ip packetDropHopLimitReached:vector(packetBytes) ETV
attr interpolationmode none
attr recordingmode vector(packetBytes)
attr source packetDropReasonIsHopLimitReached(packetDropped)
attr title "packet drop: hop limit reached, packetBytes"
vector 85 MstClusteringNetwork.node[1].ipv4.ip packetDropForwardingDisabled:vector(packetBytes) ETV
attr interpolationmode none
attr recordingmode vector(packetBytes)
attr source packetDropReasonIsForwardingDisabled(packetDropped)
attr title "packet drop: forwarding disabled, packetBytes"
vector 86 MstClusteringNetwork.node[1].ipv4.ip packetDropNoInterfaceFound:vector(packetBytes) ETV
attr interpolationmode none
attr recordingmode vector(packetBytes)
attr source packetDropReasonIsNoInterfaceFound(packetDropped)
attr title "packet drop: no interface found, packetBytes"
vector 87 MstClusteringNetwork.node[1].ipv4.ip packetDropNoRouteFound:vector(packetBytes) ETV
attr interpolationmode none
attr recordingmode vector(packetBytes)
attr source packetDropReasonIsNoRouteFound(packetDropped)
attr title "packet drop: no route found, packetBytes"
vector 88 MstClusteringNetwork.node[1].ipv4.ip packetDropUndefined:vector(packetBytes) ETV
attr interpolationmode none
attr recordingmode vector(packetBytes)
attr source packetDropReasonIsUndefined(packetDropped)
attr title "packet drop: undefined, packetBytes"
vector 89 MstClusteringNetwork.node[1].udp packetSent:vector(packetBytes) ETV
attr interpolationmode none
attr recordingmode vector(packetBytes)
attr source packetSent
attr title "packets sent, packetBytes"
vector 90 MstClusteringNetwork.node[1].udp packetReceived:vector(packetBytes) ETV
attr interpolationmode none
attr recordingmode vector(packetBytes)
attr source packetReceived
attr title "packets received, packetBytes"
vector 91 MstClusteringNetwork.node[1].udp passedUpPk:vector(count) ETV
attr interpolationmode none
attr recordingmode vector(count)
attr source packetSentToUpper
attr title "packets passed up, count"
vector 92 MstClusteringNetwork.node[1].udp droppedPkWrongPort:vector(count) ETV
attr interpolationmode none
attr recordingmode vector(count)
attr source packetDropReasonIsNoPortFound(packetDropped)
attr title "packets dropped (wrong port), count"
vector 93 MstClusteringNetwork.node[1].udp droppedPkBadChecksum:vector(count) ETV
attr interpolationmode none
attr recordingmode vector(count)
attr source packetDropReasonIsIncorrectlyReceived(packetDropped)
attr title "packets dropped (checksum error), count"
vector 94 MstClusteringNetwork.node[1].mstClustering clusterId:vector ETV
attr recordingmode vector
attr title "Cluster ID"
vector 95 MstClusteringNetwork.node[1].mstClustering clusterSize:vector ETV
attr recordingmode vector
attr title "Cluster Size"
vector 96 MstClusteringNetwork.node[1].mstClustering isClusterHead:vector ETV
attr recordingmode vector
attr title "Is Cluster Head"
vector 97 MstClusteringNetwork.node[1].mstClustering reClusteringCount:vector ETV
attr recordingmode vector
attr title "Re-clustering Count"
vector 98 MstClusteringNetwork.node[1].mstClustering controlOverhead:vector ETV
attr recordingmode vector
attr title "Control Overhead"
vector 99 MstClusteringNetwork.node[1].mstClustering clusterStability:vector ETV
attr recordingmode vector
attr title "Cluster Stability Time"
vector 100 MstClusteringNetwork.node[1].mstClustering numNeighbors:vector ETV
attr recordingmode vector
attr title "Number of Neighbors"
vector 101 MstClusteringNetwork.node[1].mstClustering energy:vector ETV
attr recordingmode vector
attr title "Remaining Energy"
vector 102 MstClusteringNetwork.node[1].mstClustering numClusters:vector ETV
attr recordingmode vector
attr title "Number of Clusters"
vector 103 MstClusteringNetwork.node[1].mstClustering mstEdgeCount:vector ETV
attr recordingmode vector
attr title "MST Edge Count"
vector 104 MstClusteringNetwork.node[2].energyStorage powerConsumption:vector ETV
attr interpolationmode sample-hold
attr recordingmode vector
attr source powerConsumptionChanged
attr title "Power consumption"
attr unit W
vector 105 MstClusteringNetwork.node[2].energyStorage powerGeneration:vector ETV
attr interpolationmode sample-hold
attr recordingmode vector
attr source powerGenerationChanged
attr title "Power generation"
attr unit W
vector 106 MstClusteringNetwork.node[2].energyStorage residualEnergyCapacity:vector ETV
attr interpolationmode linear
attr recordingmode vector
attr source residualEnergyCapacityChanged
attr title "Residual energy capacity"
attr unit J
vector 107 MstClusteringNetwork.node[2].lo[0].lo rcvdPkFromHl:vector(packetBytes) ETV
attr interpolationmode none
attr recordingmode vector(packetBytes)
attr source packetReceivedFromUpper
attr title "packets received from higher layer, packetBytes"
vector 108 MstClusteringNetwork.node[2].lo[0].lo passedUpPk:vector(packetBytes) ETV
attr interpolationmode none
attr recordingmode vector(packetBytes)
attr source packetSentToUpper
attr title "packets passed to higher layer, packetBytes"
vector 109 MstClusteringNetwork.node[2].lo[0] packetDropInterfaceDown:vector(packetBytes) ETV
attr interpolationmode none
attr recordingmode vector(packetBytes)
attr source packetDropReasonIsInterfaceDown(packetDropped)
attr title "packet drops: interface down, packetBytes"
vector 110 MstClusteringNetwork.node[2].lo[0] packetDropNoCarrier:vector(packetBytes) ETV
attr interpolationmode none
attr recordingmode vector(packetBytes)
attr source packetDropReasonIsNoCarrier(packetDropped)
attr title "packet drops: no carrier, packetBytes"
vector 111 MstClusteringNetwork.node[2].wlan[0].queue queueLength:vector ETV
attr autoWarmupFilter false
attr interpolationmode sample-hold
attr recordingmode vector
attr source "warmup(atomic(constant0(packetPushEnded) + count(packetPushStarted) - count(packetPulled) - count(packetRemoved) - count(packetDropped)))"
attr title "queue length"
attr unit pk
vector 112 MstClusteringNetwork.node[2].wlan[0].queue queueBitLength:vector ETV
attr autoWarmupFilter false
attr interpolationmode sample-hold
attr recordingmode vector
attr source "warmup(atomic(constant0(packetPushEnded) + sum(packetLength(packetPushStarted)) - sum(packetLength(packetPulled)) - sum(packetLength(packetRemoved)) - sum(packetLength(packetDropped))))"
attr title "queue bit length"
attr unit b
vector 113 MstClusteringNetwork.node[2].wlan[0].queue queueingTime:vector ETV
attr interpolationmode none
attr recordingmode vector
attr source queueingTime(packetPulled)
attr title "queueing times"
attr unit s
vector 114 MstClusteringNetwork.node[2].wlan[0].queue incomingPacketLengths:vector ETV
attr interpolationmode none
attr recordingmode vector
attr source packetLength(packetPushStarted)
attr title "incoming packet lengths"
attr unit b
vector 115 MstClusteringNetwork.node[2].wlan[0].queue incomingDataRate:vector ETV
attr interpolationmode linear
attr recordingmode vector
attr source throughput(packetPushStarted)
attr title "incoming datarate"
attr unit bps
vector 116 MstClusteringNetwork.node[2].wlan[0].queue outgoingPacketLengths:vector ETV
attr interpolationmode none
attr recordingmode vector
attr source packetLength(packetPulled)
attr title "outgoing packet lengths"
attr unit b
vector 117 MstClusteringNetwork.node[2].wlan[0].queue outgoingDataRate:vector ETV
attr interpolationmode linear
attr recordingmode vector
attr source throughput(packetPulled)
attr title "outgoing datarate"
attr unit bps
vector 118 MstClusteringNetwork.node[2].wlan[0].queue droppedPacketLengthsQueueOverflow:vector ETV
attr interpolationmode none
attr recordingmode vector
attr source packetLength(packetDropReasonIsQueueOverflow(packetDropped))
attr title "dropped packet lengths: queue overflow"
attr unit b
vector 119 MstClusteringNetwork.node[2].wlan[0].queue flowQueueingTime:vector ETV
attr interpolationmode none
attr recordingmode vector
attr source queueingTime(demuxFlow(packetPulled))
attr title "flow queueing times"
attr unit s
vector 120 MstClusteringNetwork.node[2].wlan[0].queue flowIncomingDataRate:vector ETV
attr interpolationmode linear
attr recordingmode vector
attr source throughput(flowPacketLength(demuxFlow(packetPushStarted)))
attr title "flow specific incoming data rate"
attr unit bps
vector 121 MstClusteringNetwork.node[2].wlan[0].queue flowOutgoingDataRate:vector ETV
attr interpolationmode linear
attr recordingmode vector
attr source throughput(flowPacketLength(demuxFlow(packetPulled)))
attr title "flow specific outgoing data rate"
attr unit bps
vector 122 MstClusteringNetwork.node[2].wlan[0].mac passedUpPk:vector(packetBytes) ETV
attr interpolationmode none
attr recordingmode vector(packetBytes)
attr source packetSentToUpper
attr title "packets passed to higher layer, packetBytes"
vector 123 MstClusteringNetwork.node[2].wlan[0].mac sentDownPk:vector(packetBytes) ETV
attr interpolationmode none
attr recordingmode vector(packetBytes)
attr source packetSentToLower
attr title "packets sent to lower layer, packetBytes"
vector 124 MstClusteringNetwork.node[2].wlan[0].mac rcvdPkFromHl:vector(packetBytes) ETV
attr interpolationmode none
attr recordingmode vector(packetBytes)
attr source packetReceivedFromUpper
attr title "packets received from higher layer, packetBytes"
vector 125 MstClusteringNetwork.node[2].wlan[0].mac rcvdPkFromLl:vector(packetBytes) ETV
attr interpolationmode none
attr recordingmode vector(packetBytes)
attr source packetReceivedFromLower
attr title "packets received from lower layer, packetBytes"
vector 126 MstClusteringNetwork.node[2].wlan[0].mac packetDropIncorrectlyReceived:vector(packetBytes) ETV
attr interpolationmode none
attr recordingmode vector(packetBytes)
attr source packetDropReasonIsIncorrectlyReceived(packetDropped)
attr title "packet drop: incorrectly received, packetBytes"
vector 127 MstClusteringNetwork.node[2].wlan[0].mac packetDropInterfaceDown:vector(packetBytes) ETV
attr interpolationmode none
attr recordingmode vector(packetBytes)
attr source packetDropReasonIsInterfaceDown(packetDropped)
attr title "packet drop: interface down, packetBytes"
vector 128 MstClusteringNetwork.node[2].wlan[0].mac packetDropNotAddressedToUs:vector(packetBytes) ETV
attr interpolationmode none
attr recordingmode vector(packetBytes)
attr source packetDropReasonIsNotAddressedToUs(packetDropped)
attr title "packet drop: not addressed to us, packetBytes"
vector 129 MstClusteringNetwork.node[2].wlan[0].radio.energyConsumer powerConsumption:vector ETV
attr interpolationmode sample-hold
attr recordingmode vector
attr source powerConsumptionChanged
attr title "Power consumption"
attr unit W
vector 130 MstClusteringNetwork.node[2].wlan[0].radio radioMode:vector ETV
attr interpolationmode sample-hold
attr recordingmode vector
attr source radioModeChanged
attr title "Radio mode"
vector 131 MstClusteringNetwork.node[2].wlan[0].radio receptionState:vector ETV
attr interpolationmode sample-hold
attr recordingmode vector
attr source receptionStateChanged
attr title "Radio reception state"
vector 132 MstClusteringNetwork.node[2].wlan[0].radio transmissionState:vector ETV
attr interpolationmode sample-hold
attr recordingmode vector
attr source transmissionStateChanged
attr title "Radio transmission state"
vector 133 MstClusteringNetwork.node[2].wlan[0] packetDropInterfaceDown:vector(packetBytes) ETV
attr interpolationmode none
attr recordingmode vector(packetBytes)
attr source packetDropReasonIsInterfaceDown(packetDropped)
attr title "packet drops: interface down, packetBytes"
vector 134 MstClusteringNetwork.node[2].wlan[0] packetDropNoCarrier:vector(packetBytes) ETV
attr interpolationmode none
attr recordingmode vector(packetBytes)
attr source packetDropReasonIsNoCarrier(packetDropped)
attr title "packet drops: no carrier, packetBytes"
vector 135 MstClusteringNetwork.node[2].ipv4.ip packetDropAddressResolutionFailed:vector(packetBytes) ETV
attr interpolationmode none
attr recordingmode vector(packetBytes)
attr source packetDropReasonIsAddressResolutionFailed(packetDropped)
attr title "packet drop: address resolution failed, packetBytes"
vector 136 MstClusteringNetwork.node[2].ipv4.ip packetDropHopLimitReached:vector(packetBytes) ETV
attr interpolationmode none
attr recordingmode vector(packetBytes)
attr source packetDropReasonIsHopLimitReached(packetDropped)
attr title "packet drop: hop limit reached, packetBytes"
vector 137 MstClusteringNetwork.node[2].ipv4.ip packetDropForwardingDisabled:vector(packetBytes) ETV
attr interpolationmode none
attr recordingmode vector(packetBytes)
attr source packetDropReasonIsForwardingDisabled(packetDropped)
attr title "packet drop: forwarding disabled, packetBytes"
vector 138 MstClusteringNetwork.node[2].ipv4.ip packetDropNoInterfaceFound:vector(packetBytes) ETV
attr interpolationmode none
attr recordingmode vector(packetBytes)
attr source packetDropReasonIsNoInterfaceFound(packetDropped)
attr title "packet drop: no interface found, packetBytes"
vector 139 MstClusteringNetwork.node[2].ipv4.ip packetDropNoRouteFound:vector(packetBytes) ETV
attr interpolationmode none
attr recordingmode vector(packetBytes)
attr source packetDropReasonIsNoRouteFound(packetDropped)
attr title "packet drop: no route found, packetBytes"
vector 140 MstClusteringNetwork.node[2].ipv4.ip packetDropUndefined:vector(packetBytes) ETV
attr interpolationmode none
attr recordingmode vector(packetBytes)
attr source packetDropReasonIsUndefined(packetDropped)
attr title "packet drop: undefined, packetBytes"
vector 141 MstClusteringNetwork.node[2].udp packetSent:vector(packetBytes) ETV
attr interpolationmode none
attr recordingmode vector(packetBytes)
attr source packetSent
attr title "packets sent, packetBytes"
vector 142 MstClusteringNetwork.node[2].udp packetReceived:vector(packetBytes) ETV
attr interpolationmode none
attr recordingmode vector(packetBytes)
attr source packetReceived
attr title "packets received, packetBytes"
vector 143 MstClusteringNetwork.node[2].udp passedUpPk:vector(count) ETV
attr interpolationmode none
attr recordingmode vector(count)
attr source packetSentToUpper
attr title "packets passed up, count"
vector 144 MstClusteringNetwork.node[2].udp droppedPkWrongPort:vector(count) ETV
attr interpolationmode none
attr recordingmode vector(count)
attr source packetDropReasonIsNoPortFound(packetDropped)
attr title "packets dropped (wrong port), count"
vector 145 MstClusteringNetwork.node[2].udp droppedPkBadChecksum:vector(count) ETV
attr interpolationmode none
attr recordingmode vector(count)
attr source packetDropReasonIsIncorrectlyReceived(packetDropped)
attr title "packets dropped (checksum error), count"
vector 146 MstClusteringNetwork.node[2].mstClustering clusterId:vector ETV
attr recordingmode vector
attr title "Cluster ID"
vector 147 MstClusteringNetwork.node[2].mstClustering clusterSize:vector ETV
attr recordingmode vector
attr title "Cluster Size"
vector 148 MstClusteringNetwork.node[2].mstClustering isClusterHead:vector ETV
attr recordingmode vector
attr title "Is Cluster Head"
vector 149 MstClusteringNetwork.node[2].mstClustering reClusteringCount:vector ETV
attr recordingmode vector
attr title "Re-clustering Count"
vector 150 MstClusteringNetwork.node[2].mstClustering controlOverhead:vector ETV
attr recordingmode vector
attr title "Control Overhead"
vector 151 MstClusteringNetwork.node[2].mstClustering clusterStability:vector ETV
attr recordingmode vector
attr title "Cluster Stability Time"
vector 152 MstClusteringNetwork.node[2].mstClustering numNeighbors:vector ETV
attr recordingmode vector
attr title "Number of Neighbors"
vector 153 MstClusteringNetwork.node[2].mstClustering energy:vector ETV
attr recordingmode vector
attr title "Remaining Energy"
vector 154 MstClusteringNetwork.node[2].mstClustering numClusters:vector ETV
attr recordingmode vector
attr title "Number of Clusters"
vector 155 MstClusteringNetwork.node[2].mstClustering mstEdgeCount:vector ETV
attr recordingmode vector
attr title "MST Edge Count"
vector 156 MstClusteringNetwork.node[3].energyStorage powerConsumption:vector ETV
attr interpolationmode sample-hold
attr recordingmode vector
attr source powerConsumptionChanged
attr title "Power consumption"
attr unit W
vector 157 MstClusteringNetwork.node[3].energyStorage powerGeneration:vector ETV
attr interpolationmode sample-hold
attr recordingmode vector
attr source powerGenerationChanged
attr title "Power generation"
attr unit W
vector 158 MstClusteringNetwork.node[3].energyStorage residualEnergyCapacity:vector ETV
attr interpolationmode linear
attr recordingmode vector
attr source residualEnergyCapacityChanged
attr title "Residual energy capacity"
attr unit J
vector 159 MstClusteringNetwork.node[3].lo[0].lo rcvdPkFromHl:vector(packetBytes) ETV
attr interpolationmode none
attr recordingmode vector(packetBytes)
attr source packetReceivedFromUpper
attr title "packets received from higher layer, packetBytes"
vector 160 MstClusteringNetwork.node[3].lo[0].lo passedUpPk:vector(packetBytes) ETV
attr interpolationmode none
attr recordingmode vector(packetBytes)
attr source packetSentToUpper
attr title "packets passed to higher layer, packetBytes"
vector 161 MstClusteringNetwork.node[3].lo[0] packetDropInterfaceDown:vector(packetBytes) ETV
attr interpolationmode none
attr recordingmode vector(packetBytes)
attr source packetDropReasonIsInterfaceDown(packetDropped)
attr title "packet drops: interface down, packetBytes"
vector 162 MstClusteringNetwork.node[3].lo[0] packetDropNoCarrier:vector(packetBytes) ETV
attr interpolationmode none
attr recordingmode vector(packetBytes)
attr source packetDropReasonIsNoCarrier(packetDropped)
attr title "packet drops: no carrier, packetBytes"
vector 163 MstClusteringNetwork.node[3].wlan[0].queue queueLength:vector ETV
attr autoWarmupFilter false
attr interpolationmode sample-hold
attr recordingmode vector
attr source "warmup(atomic(constant0(packetPushEnded) + count(packetPushStarted) - count(packetPulled) - count(packetRemoved) - count(packetDropped)))"
attr title "queue length"
attr unit pk
vector 164 MstClusteringNetwork.node[3].wlan[0].queue queueBitLength:vector ETV
attr autoWarmupFilter false
attr interpolationmode sample-hold
attr recordingmode vector
attr source "warmup(atomic(constant0(packetPushEnded) + sum(packetLength(packetPushStarted)) - sum(packetLength(packetPulled)) - sum(packetLength(packetRemoved)) - sum(packetLength(packetDropped))))"
attr title "queue bit length"
attr unit b
vector 165 MstClusteringNetwork.node[3].wlan[0].queue queueingTime:vector ETV
attr interpolationmode none
attr recordingmode vector
attr source queueingTime(packetPulled)
attr title "queueing times"
attr unit s
vector 166 MstClusteringNetwork.node[3].wlan[0].queue incomingPacketLengths:vector ETV
attr interpolationmode none
attr recordingmode vector
attr source packetLength(packetPushStarted)
attr title "incoming packet lengths"
attr unit b
vector 167 MstClusteringNetwork.node[3].wlan[0].queue incomingDataRate:vector ETV
attr interpolationmode linear
attr recordingmode vector
attr source throughput(packetPushStarted)
attr title "incoming datarate"
attr unit bps
vector 168 MstClusteringNetwork.node[3].wlan[0].queue outgoingPacketLengths:vector ETV
attr interpolationmode none
attr recordingmode vector
attr source packetLength(packetPulled)
attr title "outgoing packet lengths"
attr unit b
vector 169 MstClusteringNetwork.node[3].wlan[0].queue outgoingDataRate:vector ETV
attr interpolationmode linear
attr recordingmode vector
attr source throughput(packetPulled)
attr title "outgoing datarate"
attr unit bps
vector 170 MstClusteringNetwork.node[3].wlan[0].queue droppedPacketLengthsQueueOverflow:vector ETV
attr interpolationmode none
attr recordingmode vector
attr source packetLength(packetDropReasonIsQueueOverflow(packetDropped))
attr title "dropped packet lengths: queue overflow"
attr unit b
vector 171 MstClusteringNetwork.node[3].wlan[0].queue flowQueueingTime:vector ETV
attr interpolationmode none
attr recordingmode vector
attr source queueingTime(demuxFlow(packetPulled))
attr title "flow queueing times"
attr unit s
vector 172 MstClusteringNetwork.node[3].wlan[0].queue flowIncomingDataRate:vector ETV
attr interpolationmode linear
attr recordingmode vector
attr source throughput(flowPacketLength(demuxFlow(packetPushStarted)))
attr title "flow specific incoming data rate"
attr unit bps
vector 173 MstClusteringNetwork.node[3].wlan[0].queue flowOutgoingDataRate:vector ETV
attr interpolationmode linear
attr recordingmode vector
attr source throughput(flowPacketLength(demuxFlow(packetPulled)))
attr title "flow specific outgoing data rate"
attr unit bps
vector 174 MstClusteringNetwork.node[3].wlan[0].mac passedUpPk:vector(packetBytes) ETV
attr interpolationmode none
attr recordingmode vector(packetBytes)
attr source packetSentToUpper
attr title "packets passed to higher layer, packetBytes"
vector 175 MstClusteringNetwork.node[3].wlan[0].mac sentDownPk:vector(packetBytes) ETV
attr interpolationmode none
attr recordingmode vector(packetBytes)
attr source packetSentToLower
attr title "packets sent to lower layer, packetBytes"
vector 176 MstClusteringNetwork.node[3].wlan[0].mac rcvdPkFromHl:vector(packetBytes) ETV
attr interpolationmode none
attr recordingmode vector(packetBytes)
attr source packetReceivedFromUpper
attr title "packets received from higher layer, packetBytes"
vector 177 MstClusteringNetwork.node[3].wlan[0].mac rcvdPkFromLl:vector(packetBytes) ETV
attr interpolationmode none
attr recordingmode vector(packetBytes)
attr source packetReceivedFromLower
attr title "packets received from lower layer, packetBytes"
vector 178 MstClusteringNetwork.node[3].wlan[0].mac packetDropIncorrectlyReceived:vector(packetBytes) ETV
attr interpolationmode none
attr recordingmode vector(packetBytes)
attr source packetDropReasonIsIncorrectlyReceived(packetDropped)
attr title "packet drop: incorrectly received, packetBytes"
vector 179 MstClusteringNetwork.node[3].wlan[0].mac packetDropInterfaceDown:vector(packetBytes) ETV
attr interpolationmode none
attr recordingmode vector(packetBytes)
attr source packetDropReasonIsInterfaceDown(packetDropped)
attr title "packet drop: interface down, packetBytes"
vector 180 MstClusteringNetwork.node[3].wlan[0].mac packetDropNotAddressedToUs:vector(packetBytes) ETV
attr interpolationmode none
attr recordingmode vector(packetBytes)
attr source packetDropReasonIsNotAddressedToUs(packetDropped)
attr title "packet drop: not addressed to us, packetBytes"
vector 181 MstClusteringNetwork.node[3].wlan[0].radio.energyConsumer powerConsumption:vector ETV
attr interpolationmode sample-hold
attr recordingmode vector
attr source powerConsumptionChanged
attr title "Power consumption"
attr unit W
vector 182 MstClusteringNetwork.node[3].wlan[0].radio radioMode:vector ETV
attr interpolationmode sample-hold
attr recordingmode vector
attr source radioModeChanged
attr title "Radio mode"
vector 183 MstClusteringNetwork.node[3].wlan[0].radio receptionState:vector ETV
attr interpolationmode sample-hold
attr recordingmode vector
attr source receptionStateChanged
attr title "Radio reception state"
vector 184 MstClusteringNetwork.node[3].wlan[0].radio transmissionState:vector ETV
attr interpolationmode sample-hold
attr recordingmode vector
attr source transmissionStateChanged
attr title "Radio transmission state"
vector 185 MstClusteringNetwork.node[3].wlan[0] packetDropInterfaceDown:vector(packetBytes) ETV
attr interpolationmode none
attr recordingmode vector(packetBytes)
attr source packetDropReasonIsInterfaceDown(packetDropped)
attr title "packet drops: interface down, packetBytes"
vector 186 MstClusteringNetwork.node[3].wlan[0] packetDropNoCarrier:vector(packetBytes) ETV
attr interpolationmode none
attr recordingmode vector(packetBytes)
attr source packetDropReasonIsNoCarrier(packetDropped)
attr title "packet drops: no carrier, packetBytes"
vector 187 MstClusteringNetwork.node[3].ipv4.ip packetDropAddressResolutionFailed:vector(packetBytes) ETV
attr interpolationmode none
attr recordingmode vector(packetBytes)
attr source packetDropReasonIsAddressResolutionFailed(packetDropped)
attr title "packet drop: address resolution failed, packetBytes"
vector 188 MstClusteringNetwork.node[3].ipv4.ip packetDropHopLimitReached:vector(packetBytes) ETV
attr interpolationmode none
attr recordingmode vector(packetBytes)
attr source packetDropReasonIsHopLimitReached(packetDropped)
attr title "packet drop: hop limit reached, packetBytes"
vector 189 MstClusteringNetwork.node[3].ipv4.ip packetDropForwardingDisabled:vector(packetBytes) ETV
attr interpolationmode none
attr recordingmode vector(packetBytes)
attr source packetDropReasonIsForwardingDisabled(packetDropped)
attr title "packet drop: forwarding disabled, packetBytes"
vector 190 MstClusteringNetwork.node[3].ipv4.ip packetDropNoInterfaceFound:vector(packetBytes) ETV
attr interpolationmode none
attr recordingmode vector(packetBytes)
attr source packetDropReasonIsNoInterfaceFound(packetDropped)
attr title "packet drop: no interface found, packetBytes"
vector 191 MstClusteringNetwork.node[3].ipv4.ip packetDropNoRouteFound:vector(packetBytes) ETV
attr interpolationmode none
attr recordingmode vector(packetBytes)
attr source packetDropReasonIsNoRouteFound(packetDropped)
attr title "packet drop: no route found, packetBytes"
vector 192 MstClusteringNetwork.node[3].ipv4.ip packetDropUndefined:vector(packetBytes) ETV
attr interpolationmode none
attr recordingmode vector(packetBytes)
attr source packetDropReasonIsUndefined(packetDropped)
attr title "packet drop: undefined, packetBytes"
vector 193 MstClusteringNetwork.node[3].udp packetSent:vector(packetBytes) ETV
attr interpolationmode none
attr recordingmode vector(packetBytes)
attr source packetSent
attr title "packets sent, packetBytes"
vector 194 MstClusteringNetwork.node[3].udp packetReceived:vector(packetBytes) ETV
attr interpolationmode none
attr recordingmode vector(packetBytes)
attr source packetReceived
attr title "packets received, packetBytes"
vector 195 MstClusteringNetwork.node[3].udp passedUpPk:vector(count) ETV
attr interpolationmode none
attr recordingmode vector(count)
attr source packetSentToUpper
attr title "packets passed up, count"
vector 196 MstClusteringNetwork.node[3].udp droppedPkWrongPort:vector(count) ETV
attr interpolationmode none
attr recordingmode vector(count)
attr source packetDropReasonIsNoPortFound(packetDropped)
attr title "packets dropped (wrong port), count"
vector 197 MstClusteringNetwork.node[3].udp droppedPkBadChecksum:vector(count) ETV
attr interpolationmode none
attr recordingmode vector(count)
attr source packetDropReasonIsIncorrectlyReceived(packetDropped)
attr title "packets dropped (checksum error), count"
vector 198 MstClusteringNetwork.node[3].mstClustering clusterId:vector ETV
attr recordingmode vector
attr title "Cluster ID"
vector 199 MstClusteringNetwork.node[3].mstClustering clusterSize:vector ETV
attr recordingmode vector
attr title "Cluster Size"
vector 200 MstClusteringNetwork.node[3].mstClustering isClusterHead:vector ETV
attr recordingmode vector
attr title "Is Cluster Head"
vector 201 MstClusteringNetwork.node[3].mstClustering reClusteringCount:vector ETV
attr recordingmode vector
attr title "Re-clustering Count"
vector 202 MstClusteringNetwork.node[3].mstClustering controlOverhead:vector ETV
attr recordingmode vector
attr title "Control Overhead"
vector 203 MstClusteringNetwork.node[3].mstClustering clusterStability:vector ETV
attr recordingmode vector
attr title "Cluster Stability Time"
vector 204 MstClusteringNetwork.node[3].mstClustering numNeighbors:vector ETV
attr recordingmode vector
attr title "Number of Neighbors"
vector 205 MstClusteringNetwork.node[3].mstClustering energy:vector ETV
attr recordingmode vector
attr title "Remaining Energy"
vector 206 MstClusteringNetwork.node[3].mstClustering numClusters:vector ETV
attr recordingmode vector
attr title "Number of Clusters"
vector 207 MstClusteringNetwork.node[3].mstClustering mstEdgeCount:vector ETV
attr recordingmode vector
attr title "MST Edge Count"
vector 208 MstClusteringNetwork.node[4].energyStorage powerConsumption:vector ETV
attr interpolationmode sample-hold
attr recordingmode vector
attr source powerConsumptionChanged
attr title "Power consumption"
attr unit W
vector 209 MstClusteringNetwork.node[4].energyStorage powerGeneration:vector ETV
attr interpolationmode sample-hold
attr recordingmode vector
attr source powerGenerationChanged
attr title "Power generation"
attr unit W
vector 210 MstClusteringNetwork.node[4].energyStorage residualEnergyCapacity:vector ETV
attr interpolationmode linear
attr recordingmode vector
attr source residualEnergyCapacityChanged
attr title "Residual energy capacity"
attr unit J
vector 211 MstClusteringNetwork.node[4].lo[0].lo rcvdPkFromHl:vector(packetBytes) ETV
attr interpolationmode none
attr recordingmode vector(packetBytes)
attr source packetReceivedFromUpper
attr title "packets received from higher layer, packetBytes"
vector 212 MstClusteringNetwork.node[4].lo[0].lo passedUpPk:vector(packetBytes) ETV
attr interpolationmode none
attr recordingmode vector(packetBytes)
attr source packetSentToUpper
attr title "packets passed to higher layer, packetBytes"
vector 213 MstClusteringNetwork.node[4].lo[0] packetDropInterfaceDown:vector(packetBytes) ETV
attr interpolationmode none
attr recordingmode vector(packetBytes)
attr source packetDropReasonIsInterfaceDown(packetDropped)
attr title "packet drops: interface down, packetBytes"
vector 214 MstClusteringNetwork.node[4].lo[0] packetDropNoCarrier:vector(packetBytes) ETV
attr interpolationmode none
attr recordingmode vector(packetBytes)
attr source packetDropReasonIsNoCarrier(packetDropped)
attr title "packet drops: no carrier, packetBytes"
vector 215 MstClusteringNetwork.node[4].wlan[0].queue queueLength:vector ETV
attr autoWarmupFilter false
attr interpolationmode sample-hold
attr recordingmode vector
attr source "warmup(atomic(constant0(packetPushEnded) + count(packetPushStarted) - count(packetPulled) - count(packetRemoved) - count(packetDropped)))"
attr title "queue length"
attr unit pk
vector 216 MstClusteringNetwork.node[4].wlan[0].queue queueBitLength:vector ETV
attr autoWarmupFilter false
attr interpolationmode sample-hold
attr recordingmode vector
attr source "warmup(atomic(constant0(packetPushEnded) + sum(packetLength(packetPushStarted)) - sum(packetLength(packetPulled)) - sum(packetLength(packetRemoved)) - sum(packetLength(packetDropped))))"
attr title "queue bit length"
attr unit b
vector 217 MstClusteringNetwork.node[4].wlan[0].queue queueingTime:vector ETV
attr interpolationmode none
attr recordingmode vector
attr source queueingTime(packetPulled)
attr title "queueing times"
attr unit s
vector 218 MstClusteringNetwork.node[4].wlan[0].queue incomingPacketLengths:vector ETV
attr interpolationmode none
attr recordingmode vector
attr source packetLength(packetPushStarted)
attr title "incoming packet lengths"
attr unit b
vector 219 MstClusteringNetwork.node[4].wlan[0].queue incomingDataRate:vector ETV
attr interpolationmode linear
attr recordingmode vector
attr source throughput(packetPushStarted)
attr title "incoming datarate"
attr unit bps
vector 220 MstClusteringNetwork.node[4].wlan[0].queue outgoingPacketLengths:vector ETV
attr interpolationmode none
attr recordingmode vector
attr source packetLength(packetPulled)
attr title "outgoing packet lengths"
attr unit b
vector 221 MstClusteringNetwork.node[4].wlan[0].queue outgoingDataRate:vector ETV
attr interpolationmode linear
attr recordingmode vector
attr source throughput(packetPulled)
attr title "outgoing datarate"
attr unit bps
vector 222 MstClusteringNetwork.node[4].wlan[0].queue droppedPacketLengthsQueueOverflow:vector ETV
attr interpolationmode none
attr recordingmode vector
attr source packetLength(packetDropReasonIsQueueOverflow(packetDropped))
attr title "dropped packet lengths: queue overflow"
attr unit b
vector 223 MstClusteringNetwork.node[4].wlan[0].queue flowQueueingTime:vector ETV
attr interpolationmode none
attr recordingmode vector
attr source queueingTime(demuxFlow(packetPulled))
attr title "flow queueing times"
attr unit s
vector 224 MstClusteringNetwork.node[4].wlan[0].queue flowIncomingDataRate:vector ETV
attr interpolationmode linear
attr recordingmode vector
attr source throughput(flowPacketLength(demuxFlow(packetPushStarted)))
attr title "flow specific incoming data rate"
attr unit bps
vector 225 MstClusteringNetwork.node[4].wlan[0].queue flowOutgoingDataRate:vector ETV
attr interpolationmode linear
attr recordingmode vector
attr source throughput(flowPacketLength(demuxFlow(packetPulled)))
attr title "flow specific outgoing data rate"
attr unit bps
vector 226 MstClusteringNetwork.node[4].wlan[0].mac passedUpPk:vector(packetBytes) ETV
attr interpolationmode none
attr recordingmode vector(packetBytes)
attr source packetSentToUpper
attr title "packets passed to higher layer, packetBytes"
vector 227 MstClusteringNetwork.node[4].wlan[0].mac sentDownPk:vector(packetBytes) ETV
attr interpolationmode none
attr recordingmode vector(packetBytes)
attr source packetSentToLower
attr title "packets sent to lower layer, packetBytes"
vector 228 MstClusteringNetwork.node[4].wlan[0].mac rcvdPkFromHl:vector(packetBytes) ETV
attr interpolationmode none
attr recordingmode vector(packetBytes)
attr source packetReceivedFromUpper
attr title "packets received from higher layer, packetBytes"
vector 229 MstClusteringNetwork.node[4].wlan[0].mac rcvdPkFromLl:vector(packetBytes) ETV
attr interpolationmode none
attr recordingmode vector(packetBytes)
attr source packetReceivedFromLower
attr title "packets received from lower layer, packetBytes"
vector 230 MstClusteringNetwork.node[4].wlan[0].mac packetDropIncorrectlyReceived:vector(packetBytes) ETV
attr interpolationmode none
attr recordingmode vector(packetBytes)
attr source packetDropReasonIsIncorrectlyReceived(packetDropped)
attr title "packet drop: incorrectly received, packetBytes"
vector 231 MstClusteringNetwork.node[4].wlan[0].mac packetDropInterfaceDown:vector(packetBytes) ETV
attr interpolationmode none
attr recordingmode vector(packetBytes)
attr source packetDropReasonIsInterfaceDown(packetDropped)
attr title "packet drop: interface down, packetBytes"
vector 232 MstClusteringNetwork.node[4].wlan[0].mac packetDropNotAddressedToUs:vector(packetBytes) ETV
attr interpolationmode none
attr recordingmode vector(packetBytes)
attr source packetDropReasonIsNotAddressedToUs(packetDropped)
attr title "packet drop: not addressed to us, packetBytes"
vector 233 MstClusteringNetwork.node[4].wlan[0].radio.energyConsumer powerConsumption:vector ETV
attr interpolationmode sample-hold
attr recordingmode vector
attr source powerConsumptionChanged
attr title "Power consumption"
attr unit W
vector 234 MstClusteringNetwork.node[4].wlan[0].radio radioMode:vector ETV
attr interpolationmode sample-hold
attr recordingmode vector
attr source radioModeChanged
attr title "Radio mode"
vector 235 MstClusteringNetwork.node[4].wlan[0].radio receptionState:vector ETV
attr interpolationmode sample-hold
attr recordingmode vector
attr source receptionStateChanged
attr title "Radio reception state"
vector 236 MstClusteringNetwork.node[4].wlan[0].radio transmissionState:vector ETV
attr interpolationmode sample-hold
attr recordingmode vector
attr source transmissionStateChanged
attr title "Radio transmission state"
vector 237 MstClusteringNetwork.node[4].wlan[0] packetDropInterfaceDown:vector(packetBytes) ETV
attr interpolationmode none
attr recordingmode vector(packetBytes)
attr source packetDropReasonIsInterfaceDown(packetDropped)
attr title "packet drops: interface down, packetBytes"
vector 238 MstClusteringNetwork.node[4].wlan[0] packetDropNoCarrier:vector(packetBytes) ETV
attr interpolationmode none
attr recordingmode vector(packetBytes)
attr source packetDropReasonIsNoCarrier(packetDropped)
attr title "packet drops: no carrier, packetBytes"
vector 239 MstClusteringNetwork.node[4].ipv4.ip packetDropAddressResolutionFailed:vector(packetBytes) ETV
attr interpolationmode none
attr recordingmode vector(packetBytes)
attr source packetDropReasonIsAddressResolutionFailed(packetDropped)
attr title "packet drop: address resolution failed, packetBytes"
vector 240 MstClusteringNetwork.node[4].ipv4.ip packetDropHopLimitReached:vector(packetBytes) ETV
attr interpolationmode none
attr recordingmode vector(packetBytes)
attr source packetDropReasonIsHopLimitReached(packetDropped)
attr title "packet drop: hop limit reached, packetBytes"
vector 241 MstClusteringNetwork.node[4].ipv4.ip packetDropForwardingDisabled:vector(packetBytes) ETV
attr interpolationmode none
attr recordingmode vector(packetBytes)
attr source packetDropReasonIsForwardingDisabled(packetDropped)
attr title "packet drop: forwarding disabled, packetBytes"
vector 242 MstClusteringNetwork.node[4].ipv4.ip packetDropNoInterfaceFound:vector(packetBytes) ETV
attr interpolationmode none
attr recordingmode vector(packetBytes)
attr source packetDropReasonIsNoInterfaceFound(packetDropped)
attr title "packet drop: no interface found, packetBytes"
vector 243 MstClusteringNetwork.node[4].ipv4.ip packetDropNoRouteFound:vector(packetBytes) ETV
attr interpolationmode none
attr recordingmode vector(packetBytes)
attr source packetDropReasonIsNoRouteFound(packetDropped)
attr title "packet drop: no route found, packetBytes"
vector 244 MstClusteringNetwork.node[4].ipv4.ip packetDropUndefined:vector(packetBytes) ETV
attr interpolationmode none
attr recordingmode vector(packetBytes)
attr source packetDropReasonIsUndefined(packetDropped)
attr title "packet drop: undefined, packetBytes"
vector 245 MstClusteringNetwork.node[4].udp packetSent:vector(packetBytes) ETV
attr interpolationmode none
attr recordingmode vector(packetBytes)
attr source packetSent
attr title "packets sent, packetBytes"
vector 246 MstClusteringNetwork.node[4].udp packetReceived:vector(packetBytes) ETV
attr interpolationmode none
attr recordingmode vector(packetBytes)
attr source packetReceived
attr title "packets received, packetBytes"
vector 247 MstClusteringNetwork.node[4].udp passedUpPk:vector(count) ETV
attr interpolationmode none
attr recordingmode vector(count)
attr source packetSentToUpper
attr title "packets passed up, count"
vector 248 MstClusteringNetwork.node[4].udp droppedPkWrongPort:vector(count) ETV
attr interpolationmode none
attr recordingmode vector(count)
attr source packetDropReasonIsNoPortFound(packetDropped)
attr title "packets dropped (wrong port), count"
vector 249 MstClusteringNetwork.node[4].udp droppedPkBadChecksum:vector(count) ETV
attr interpolationmode none
attr recordingmode vector(count)
attr source packetDropReasonIsIncorrectlyReceived(packetDropped)
attr title "packets dropped (checksum error), count"
vector 250 MstClusteringNetwork.node[4].mstClustering clusterId:vector ETV
attr recordingmode vector
attr title "Cluster ID"
vector 251 MstClusteringNetwork.node[4].mstClustering clusterSize:vector ETV
attr recordingmode vector
attr title "Cluster Size"
vector 252 MstClusteringNetwork.node[4].mstClustering isClusterHead:vector ETV
attr recordingmode vector
attr title "Is Cluster Head"
vector 253 MstClusteringNetwork.node[4].mstClustering reClusteringCount:vector ETV
attr recordingmode vector
attr title "Re-clustering Count"
vector 254 MstClusteringNetwork.node[4].mstClustering controlOverhead:vector ETV
attr recordingmode vector
attr title "Control Overhead"
vector 255 MstClusteringNetwork.node[4].mstClustering clusterStability:vector ETV
attr recordingmode vector
attr title "Cluster Stability Time"
vector 256 MstClusteringNetwork.node[4].mstClustering numNeighbors:vector ETV
attr recordingmode vector
attr title "Number of Neighbors"
vector 257 MstClusteringNetwork.node[4].mstClustering energy:vector ETV
attr recordingmode vector
attr title "Remaining Energy"
vector 258 MstClusteringNetwork.node[4].mstClustering numClusters:vector ETV
attr recordingmode vector
attr title "Number of Clusters"
vector 259 MstClusteringNetwork.node[4].mstClustering mstEdgeCount:vector ETV
attr recordingmode vector
attr title "MST Edge Count"
vector 260 MstClusteringNetwork.node[5].energyStorage powerConsumption:vector ETV
attr interpolationmode sample-hold
attr recordingmode vector
attr source powerConsumptionChanged
attr title "Power consumption"
attr unit W
vector 261 MstClusteringNetwork.node[5].energyStorage powerGeneration:vector ETV
attr interpolationmode sample-hold
attr recordingmode vector
attr source powerGenerationChanged
attr title "Power generation"
attr unit W
vector 262 MstClusteringNetwork.node[5].energyStorage residualEnergyCapacity:vector ETV
attr interpolationmode linear
attr recordingmode vector
attr source residualEnergyCapacityChanged
attr title "Residual energy capacity"
attr unit J
vector 263 MstClusteringNetwork.node[5].lo[0].lo rcvdPkFromHl:vector(packetBytes) ETV
attr interpolationmode none
attr recordingmode vector(packetBytes)
attr source packetReceivedFromUpper
attr title "packets received from higher layer, packetBytes"
vector 264 MstClusteringNetwork.node[5].lo[0].lo passedUpPk:vector(packetBytes) ETV
attr interpolationmode none
attr recordingmode vector(packetBytes)
attr source packetSentToUpper
attr title "packets passed to higher layer, packetBytes"
vector 265 MstClusteringNetwork.node[5].lo[0] packetDropInterfaceDown:vector(packetBytes) ETV
attr interpolationmode none
attr recordingmode vector(packetBytes)
attr source packetDropReasonIsInterfaceDown(packetDropped)
attr title "packet drops: interface down, packetBytes"
vector 266 MstClusteringNetwork.node[5].lo[0] packetDropNoCarrier:vector(packetBytes) ETV
attr interpolationmode none
attr recordingmode vector(packetBytes)
attr source packetDropReasonIsNoCarrier(packetDropped)
attr title "packet drops: no carrier, packetBytes"
vector 267 MstClusteringNetwork.node[5].wlan[0].queue queueLength:vector ETV
attr autoWarmupFilter false
attr interpolationmode sample-hold
attr recordingmode vector
attr source "warmup(atomic(constant0(packetPushEnded) + count(packetPushStarted) - count(packetPulled) - count(packetRemoved) - count(packetDropped)))"
attr title "queue length"
attr unit pk
vector 268 MstClusteringNetwork.node[5].wlan[0].queue queueBitLength:vector ETV
attr autoWarmupFilter false
attr interpolationmode sample-hold
attr recordingmode vector
attr source "warmup(atomic(constant0(packetPushEnded) + sum(packetLength(packetPushStarted)) - sum(packetLength(packetPulled)) - sum(packetLength(packetRemoved)) - sum(packetLength(packetDropped))))"
attr title "queue bit length"
attr unit b
vector 269 MstClusteringNetwork.node[5].wlan[0].queue queueingTime:vector ETV
attr interpolationmode none
attr recordingmode vector
attr source queueingTime(packetPulled)
attr title "queueing times"
attr unit s
vector 270 MstClusteringNetwork.node[5].wlan[0].queue incomingPacketLengths:vector ETV
attr interpolationmode none
attr recordingmode vector
attr source packetLength(packetPushStarted)
attr title "incoming packet lengths"
attr unit b
vector 271 MstClusteringNetwork.node[5].wlan[0].queue incomingDataRate:vector ETV
attr interpolationmode linear
attr recordingmode vector
attr source throughput(packetPushStarted)
attr title "incoming datarate"
attr unit bps
vector 272 MstClusteringNetwork.node[5].wlan[0].queue outgoingPacketLengths:vector ETV
attr interpolationmode none
attr recordingmode vector
attr source packetLength(packetPulled)
attr title "outgoing packet lengths"
attr unit b
vector 273 MstClusteringNetwork.node[5].wlan[0].queue outgoingDataRate:vector ETV
attr interpolationmode linear
attr recordingmode vector
attr source throughput(packetPulled)
attr title "outgoing datarate"
attr unit bps
vector 274 MstClusteringNetwork.node[5].wlan[0].queue droppedPacketLengthsQueueOverflow:vector ETV
attr interpolationmode none
attr recordingmode vector
attr source packetLength(packetDropReasonIsQueueOverflow(packetDropped))
attr title "dropped packet lengths: queue overflow"
attr unit b
vector 275 MstClusteringNetwork.node[5].wlan[0].queue flowQueueingTime:vector ETV
attr interpolationmode none
attr recordingmode vector
attr source queueingTime(demuxFlow(packetPulled))
attr title "flow queueing times"
attr unit s
vector 276 MstClusteringNetwork.node[5].wlan[0].queue flowIncomingDataRate:vector ETV
attr interpolationmode linear
attr recordingmode vector
attr source throughput(flowPacketLength(demuxFlow(packetPushStarted)))
attr title "flow specific incoming data rate"
attr unit bps
vector 277 MstClusteringNetwork.node[5].wlan[0].queue flowOutgoingDataRate:vector ETV
attr interpolationmode linear
attr recordingmode vector
attr source throughput(flowPacketLength(demuxFlow(packetPulled)))
attr title "flow specific outgoing data rate"
attr unit bps
vector 278 MstClusteringNetwork.node[5].wlan[0].mac passedUpPk:vector(packetBytes) ETV
attr interpolationmode none
attr recordingmode vector(packetBytes)
attr source packetSentToUpper
attr title "packets passed to higher layer, packetBytes"
vector 279 MstClusteringNetwork.node[5].wlan[0].mac sentDownPk:vector(packetBytes) ETV
attr interpolationmode none
attr recordingmode vector(packetBytes)
attr source packetSentToLower
attr title "packets sent to lower layer, packetBytes"
vector 280 MstClusteringNetwork.node[5].wlan[0].mac rcvdPkFromHl:vector(packetBytes) ETV
attr interpolationmode none
attr recordingmode vector(packetBytes)
attr source packetReceivedFromUpper
attr title "packets received from higher layer, packetBytes"
vector 281 MstClusteringNetwork.node[5].wlan[0].mac rcvdPkFromLl:vector(packetBytes) ETV
attr interpolationmode none
attr recordingmode vector(packetBytes)
attr source packetReceivedFromLower
attr title "packets received from lower layer, packetBytes"
vector 282 MstClusteringNetwork.node[5].wlan[0].mac packetDropIncorrectlyReceived:vector(packetBytes) ETV
attr interpolationmode none
attr recordingmode vector(packetBytes)
attr source packetDropReasonIsIncorrectlyReceived(packetDropped)
attr title "packet drop: incorrectly received, packetBytes"
vector 283 MstClusteringNetwork.node[5].wlan[0].mac packetDropInterfaceDown:vector(packetBytes) ETV
attr interpolationmode none
attr recordingmode vector(packetBytes)
attr source packetDropReasonIsInterfaceDown(packetDropped)
attr title "packet drop: interface down, packetBytes"
vector 284 MstClusteringNetwork.node[5].wlan[0].mac packetDropNotAddressedToUs:vector(packetBytes) ETV
attr interpolationmode none
attr recordingmode vector(packetBytes)
attr source packetDropReasonIsNotAddressedToUs(packetDropped)
attr title "packet drop: not addressed to us, packetBytes"
vector 285 MstClusteringNetwork.node[5].wlan[0].radio.energyConsumer powerConsumption:vector ETV
attr interpolationmode sample-hold
attr recordingmode vector
attr source powerConsumptionChanged
attr title "Power consumption"
attr unit W
vector 286 MstClusteringNetwork.node[5].wlan[0].radio radioMode:vector ETV
attr interpolationmode sample-hold
attr recordingmode vector
attr source radioModeChanged
attr title "Radio mode"
vector 287 MstClusteringNetwork.node[5].wlan[0].radio receptionState:vector ETV
attr interpolationmode sample-hold
attr recordingmode vector
attr source receptionStateChanged
attr title "Radio reception state"
vector 288 MstClusteringNetwork.node[5].wlan[0].radio transmissionState:vector ETV
attr interpolationmode sample-hold
attr recordingmode vector
attr source transmissionStateChanged
attr title "Radio transmission state"
vector 289 MstClusteringNetwork.node[5].wlan[0] packetDropInterfaceDown:vector(packetBytes) ETV
attr interpolationmode none
attr recordingmode vector(packetBytes)
attr source packetDropReasonIsInterfaceDown(packetDropped)
attr title "packet drops: interface down, packetBytes"
vector 290 MstClusteringNetwork.node[5].wlan[0] packetDropNoCarrier:vector(packetBytes) ETV
attr interpolationmode none
attr recordingmode vector(packetBytes)
attr source packetDropReasonIsNoCarrier(packetDropped)
attr title "packet drops: no carrier, packetBytes"
vector 291 MstClusteringNetwork.node[5].ipv4.ip packetDropAddressResolutionFailed:vector(packetBytes) ETV
attr interpolationmode none
attr recordingmode vector(packetBytes)
attr source packetDropReasonIsAddressResolutionFailed(packetDropped)
attr title "packet drop: address resolution failed, packetBytes"
vector 292 MstClusteringNetwork.node[5].ipv4.ip packetDropHopLimitReached:vector(packetBytes) ETV
attr interpolationmode none
attr recordingmode vector(packetBytes)
attr source packetDropReasonIsHopLimitReached(packetDropped)
attr title "packet drop: hop limit reached, packetBytes"
vector 293 MstClusteringNetwork.node[5].ipv4.ip packetDropForwardingDisabled:vector(packetBytes) ETV
attr interpolationmode none
attr recordingmode vector(packetBytes)
attr source packetDropReasonIsForwardingDisabled(packetDropped)
attr title "packet drop: forwarding disabled, packetBytes"
vector 294 MstClusteringNetwork.node[5].ipv4.ip packetDropNoInterfaceFound:vector(packetBytes) ETV
attr interpolationmode none
attr recordingmode vector(packetBytes)
attr source packetDropReasonIsNoInterfaceFound(packetDropped)
attr title "packet drop: no interface found, packetBytes"
vector 295 MstClusteringNetwork.node[5].ipv4.ip packetDropNoRouteFound:vector(packetBytes) ETV
attr interpolationmode none
attr recordingmode vector(packetBytes)
attr source packetDropReasonIsNoRouteFound(packetDropped)
attr title "packet drop: no route found, packetBytes"
vector 296 MstClusteringNetwork.node[5].ipv4.ip packetDropUndefined:vector(packetBytes) ETV
attr interpolationmode none
attr recordingmode vector(packetBytes)
attr source packetDropReasonIsUndefined(packetDropped)
attr title "packet drop: undefined, packetBytes"
vector 297 MstClusteringNetwork.node[5].udp packetSent:vector(packetBytes) ETV
attr interpolationmode none
attr recordingmode vector(packetBytes)
attr source packetSent
attr title "packets sent, packetBytes"
vector 298 MstClusteringNetwork.node[5].udp packetReceived:vector(packetBytes) ETV
attr interpolationmode none
attr recordingmode vector(packetBytes)
attr source packetReceived
attr title "packets received, packetBytes"
vector 299 MstClusteringNetwork.node[5].udp passedUpPk:vector(count) ETV
attr interpolationmode none
attr recordingmode vector(count)
attr source packetSentToUpper
attr title "packets passed up, count"
vector 300 MstClusteringNetwork.node[5].udp droppedPkWrongPort:vector(count) ETV
attr interpolationmode none
attr recordingmode vector(count)
attr source packetDropReasonIsNoPortFound(packetDropped)
attr title "packets dropped (wrong port), count"
vector 301 MstClusteringNetwork.node[5].udp droppedPkBadChecksum:vector(count) ETV
attr interpolationmode none
attr recordingmode vector(count)
attr source packetDropReasonIsIncorrectlyReceived(packetDropped)
attr title "packets dropped (checksum error), count"
vector 302 MstClusteringNetwork.node[5].mstClustering clusterId:vector ETV
attr recordingmode vector
attr title "Cluster ID"
vector 303 MstClusteringNetwork.node[5].mstClustering clusterSize:vector ETV
attr recordingmode vector
attr title "Cluster Size"
vector 304 MstClusteringNetwork.node[5].mstClustering isClusterHead:vector ETV
attr recordingmode vector
attr title "Is Cluster Head"
vector 305 MstClusteringNetwork.node[5].mstClustering reClusteringCount:vector ETV
attr recordingmode vector
attr title "Re-clustering Count"
vector 306 MstClusteringNetwork.node[5].mstClustering controlOverhead:vector ETV
attr recordingmode vector
attr title "Control Overhead"
vector 307 MstClusteringNetwork.node[5].mstClustering clusterStability:vector ETV
attr recordingmode vector
attr title "Cluster Stability Time"
vector 308 MstClusteringNetwork.node[5].mstClustering numNeighbors:vector ETV
attr recordingmode vector
attr title "Number of Neighbors"
vector 309 MstClusteringNetwork.node[5].mstClustering energy:vector ETV
attr recordingmode vector
attr title "Remaining Energy"
vector 310 MstClusteringNetwork.node[5].mstClustering numClusters:vector ETV
attr recordingmode vector
attr title "Number of Clusters"
vector 311 MstClusteringNetwork.node[5].mstClustering mstEdgeCount:vector ETV
attr recordingmode vector
attr title "MST Edge Count"
vector 312 MstClusteringNetwork.node[6].energyStorage powerConsumption:vector ETV
attr interpolationmode sample-hold
attr recordingmode vector
attr source powerConsumptionChanged
attr title "Power consumption"
attr unit W
vector 313 MstClusteringNetwork.node[6].energyStorage powerGeneration:vector ETV
attr interpolationmode sample-hold
attr recordingmode vector
attr source powerGenerationChanged
attr title "Power generation"
attr unit W
vector 314 MstClusteringNetwork.node[6].energyStorage residualEnergyCapacity:vector ETV
attr interpolationmode linear
attr recordingmode vector
attr source residualEnergyCapacityChanged
attr title "Residual energy capacity"
attr unit J
vector 315 MstClusteringNetwork.node[6].lo[0].lo rcvdPkFromHl:vector(packetBytes) ETV
attr interpolationmode none
attr recordingmode vector(packetBytes)
attr source packetReceivedFromUpper
attr title "packets received from higher layer, packetBytes"
vector 316 MstClusteringNetwork.node[6].lo[0].lo passedUpPk:vector(packetBytes) ETV
attr interpolationmode none
attr recordingmode vector(packetBytes)
attr source packetSentToUpper
attr title "packets passed to higher layer, packetBytes"
vector 317 MstClusteringNetwork.node[6].lo[0] packetDropInterfaceDown:vector(packetBytes) ETV
attr interpolationmode none
attr recordingmode vector(packetBytes)
attr source packetDropReasonIsInterfaceDown(packetDropped)
attr title "packet drops: interface down, packetBytes"
vector 318 MstClusteringNetwork.node[6].lo[0] packetDropNoCarrier:vector(packetBytes) ETV
attr interpolationmode none
attr recordingmode vector(packetBytes)
attr source packetDropReasonIsNoCarrier(packetDropped)
attr title "packet drops: no carrier, packetBytes"
vector 319 MstClusteringNetwork.node[6].wlan[0].queue queueLength:vector ETV
attr autoWarmupFilter false
attr interpolationmode sample-hold
attr recordingmode vector
attr source "warmup(atomic(constant0(packetPushEnded) + count(packetPushStarted) - count(packetPulled) - count(packetRemoved) - count(packetDropped)))"
attr title "queue length"
attr unit pk
vector 320 MstClusteringNetwork.node[6].wlan[0].queue queueBitLength:vector ETV
attr autoWarmupFilter false
attr interpolationmode sample-hold
attr recordingmode vector
attr source "warmup(atomic(constant0(packetPushEnded) + sum(packetLength(packetPushStarted)) - sum(packetLength(packetPulled)) - sum(packetLength(packetRemoved)) - sum(packetLength(packetDropped))))"
attr title "queue bit length"
attr unit b
vector 321 MstClusteringNetwork.node[6].wlan[0].queue queueingTime:vector ETV
attr interpolationmode none
attr recordingmode vector
attr source queueingTime(packetPulled)
attr title "queueing times"
attr unit s
vector 322 MstClusteringNetwork.node[6].wlan[0].queue incomingPacketLengths:vector ETV
attr interpolationmode none
attr recordingmode vector
attr source packetLength(packetPushStarted)
attr title "incoming packet lengths"
[...]
vector 2546 MstClusteringNetwork.node[48].mstClustering numClusters:vector ETV
attr recordingmode vector
attr title "Number of Clusters"
vector 2547 MstClusteringNetwork.node[48].mstClustering mstEdgeCount:vector ETV
attr recordingmode vector
attr title "MST Edge Count"
vector 2548 MstClusteringNetwork.node[49].energyStorage powerConsumption:vector ETV
attr interpolationmode sample-hold
attr recordingmode vector
attr source powerConsumptionChanged
attr title "Power consumption"
attr unit W
vector 2549 MstClusteringNetwork.node[49].energyStorage powerGeneration:vector ETV
attr interpolationmode sample-hold
attr recordingmode vector
attr source powerGenerationChanged
attr title "Power generation"
attr unit W
vector 2550 MstClusteringNetwork.node[49].energyStorage residualEnergyCapacity:vector ETV
attr interpolationmode linear
attr recordingmode vector
attr source residualEnergyCapacityChanged
attr title "Residual energy capacity"
attr unit J
vector 2551 MstClusteringNetwork.node[49].lo[0].lo rcvdPkFromHl:vector(packetBytes) ETV
attr interpolationmode none
attr recordingmode vector(packetBytes)
attr source packetReceivedFromUpper
attr title "packets received from higher layer, packetBytes"
vector 2552 MstClusteringNetwork.node[49].lo[0].lo passedUpPk:vector(packetBytes) ETV
attr interpolationmode none
attr recordingmode vector(packetBytes)
attr source packetSentToUpper
attr title "packets passed to higher layer, packetBytes"
vector 2553 MstClusteringNetwork.node[49].lo[0] packetDropInterfaceDown:vector(packetBytes) ETV
attr interpolationmode none
attr recordingmode vector(packetBytes)
attr source packetDropReasonIsInterfaceDown(packetDropped)
attr title "packet drops: interface down, packetBytes"
vector 2554 MstClusteringNetwork.node[49].lo[0] packetDropNoCarrier:vector(packetBytes) ETV
attr interpolationmode none
attr recordingmode vector(packetBytes)
attr source packetDropReasonIsNoCarrier(packetDropped)
attr title "packet drops: no carrier, packetBytes"
vector 2555 MstClusteringNetwork.node[49].wlan[0].queue queueLength:vector ETV
attr autoWarmupFilter false
attr interpolationmode sample-hold
attr recordingmode vector
attr source "warmup(atomic(constant0(packetPushEnded) + count(packetPushStarted) - count(packetPulled) - count(packetRemoved) - count(packetDropped)))"
attr title "queue length"
attr unit pk
vector 2556 MstClusteringNetwork.node[49].wlan[0].queue queueBitLength:vector ETV
attr autoWarmupFilter false
attr interpolationmode sample-hold
attr recordingmode vector
attr source "warmup(atomic(constant0(packetPushEnded) + sum(packetLength(packetPushStarted)) - sum(packetLength(packetPulled)) - sum(packetLength(packetRemoved)) - sum(packetLength(packetDropped))))"
attr title "queue bit length"
attr unit b
vector 2557 MstClusteringNetwork.node[49].wlan[0].queue queueingTime:vector ETV
attr interpolationmode none
attr recordingmode vector
attr source queueingTime(packetPulled)
attr title "queueing times"
attr unit s
vector 2558 MstClusteringNetwork.node[49].wlan[0].queue incomingPacketLengths:vector ETV
attr interpolationmode none
attr recordingmode vector
attr source packetLength(packetPushStarted)
attr title "incoming packet lengths"
attr unit b
vector 2559 MstClusteringNetwork.node[49].wlan[0].queue incomingDataRate:vector ETV
attr interpolationmode linear
attr recordingmode vector
attr source throughput(packetPushStarted)
attr title "incoming datarate"
attr unit bps
vector 2560 MstClusteringNetwork.node[49].wlan[0].queue outgoingPacketLengths:vector ETV
attr interpolationmode none
attr recordingmode vector
attr source packetLength(packetPulled)
attr title "outgoing packet lengths"
attr unit b
vector 2561 MstClusteringNetwork.node[49].wlan[0].queue outgoingDataRate:vector ETV
attr interpolationmode linear
attr recordingmode vector
attr source throughput(packetPulled)
attr title "outgoing datarate"
attr unit bps
vector 2562 MstClusteringNetwork.node[49].wlan[0].queue droppedPacketLengthsQueueOverflow:vector ETV
attr interpolationmode none
attr recordingmode vector
attr source packetLength(packetDropReasonIsQueueOverflow(packetDropped))
attr title "dropped packet lengths: queue overflow"
attr unit b
vector 2563 MstClusteringNetwork.node[49].wlan[0].queue flowQueueingTime:vector ETV
attr interpolationmode none
attr recordingmode vector
attr source queueingTime(demuxFlow(packetPulled))
attr title "flow queueing times"
attr unit s
vector 2564 MstClusteringNetwork.node[49].wlan[0].queue flowIncomingDataRate:vector ETV
attr interpolationmode linear
attr recordingmode vector
attr source throughput(flowPacketLength(demuxFlow(packetPushStarted)))
attr title "flow specific incoming data rate"
attr unit bps
vector 2565 MstClusteringNetwork.node[49].wlan[0].queue flowOutgoingDataRate:vector ETV
attr interpolationmode linear
attr recordingmode vector
attr source throughput(flowPacketLength(demuxFlow(packetPulled)))
attr title "flow specific outgoing data rate"
attr unit bps
vector 2566 MstClusteringNetwork.node[49].wlan[0].mac passedUpPk:vector(packetBytes) ETV
attr interpolationmode none
attr recordingmode vector(packetBytes)
attr source packetSentToUpper
attr title "packets passed to higher layer, packetBytes"
vector 2567 MstClusteringNetwork.node[49].wlan[0].mac sentDownPk:vector(packetBytes) ETV
attr interpolationmode none
attr recordingmode vector(packetBytes)
attr source packetSentToLower
attr title "packets sent to lower layer, packetBytes"
vector 2568 MstClusteringNetwork.node[49].wlan[0].mac rcvdPkFromHl:vector(packetBytes) ETV
attr interpolationmode none
attr recordingmode vector(packetBytes)
attr source packetReceivedFromUpper
attr title "packets received from higher layer, packetBytes"
vector 2569 MstClusteringNetwork.node[49].wlan[0].mac rcvdPkFromLl:vector(packetBytes) ETV
attr interpolationmode none
attr recordingmode vector(packetBytes)
attr source packetReceivedFromLower
attr title "packets received from lower layer, packetBytes"
vector 2570 MstClusteringNetwork.node[49].wlan[0].mac packetDropIncorrectlyReceived:vector(packetBytes) ETV
attr interpolationmode none
attr recordingmode vector(packetBytes)
attr source packetDropReasonIsIncorrectlyReceived(packetDropped)
attr title "packet drop: incorrectly received, packetBytes"
vector 2571 MstClusteringNetwork.node[49].wlan[0].mac packetDropInterfaceDown:vector(packetBytes) ETV
attr interpolationmode none
attr recordingmode vector(packetBytes)
attr source packetDropReasonIsInterfaceDown(packetDropped)
attr title "packet drop: interface down, packetBytes"
vector 2572 MstClusteringNetwork.node[49].wlan[0].mac packetDropNotAddressedToUs:vector(packetBytes) ETV
attr interpolationmode none
attr recordingmode vector(packetBytes)
attr source packetDropReasonIsNotAddressedToUs(packetDropped)
attr title "packet drop: not addressed to us, packetBytes"
vector 2573 MstClusteringNetwork.node[49].wlan[0].radio.energyConsumer powerConsumption:vector ETV
attr interpolationmode sample-hold
attr recordingmode vector
attr source powerConsumptionChanged
attr title "Power consumption"
attr unit W
vector 2574 MstClusteringNetwork.node[49].wlan[0].radio radioMode:vector ETV
attr interpolationmode sample-hold
attr recordingmode vector
attr source radioModeChanged
attr title "Radio mode"
vector 2575 MstClusteringNetwork.node[49].wlan[0].radio receptionState:vector ETV
attr interpolationmode sample-hold
attr recordingmode vector
attr source receptionStateChanged
attr title "Radio reception state"
vector 2576 MstClusteringNetwork.node[49].wlan[0].radio transmissionState:vector ETV
attr interpolationmode sample-hold
attr recordingmode vector
attr source transmissionStateChanged
attr title "Radio transmission state"
vector 2577 MstClusteringNetwork.node[49].wlan[0] packetDropInterfaceDown:vector(packetBytes) ETV
attr interpolationmode none
attr recordingmode vector(packetBytes)
attr source packetDropReasonIsInterfaceDown(packetDropped)
attr title "packet drops: interface down, packetBytes"
vector 2578 MstClusteringNetwork.node[49].wlan[0] packetDropNoCarrier:vector(packetBytes) ETV
attr interpolationmode none
attr recordingmode vector(packetBytes)
attr source packetDropReasonIsNoCarrier(packetDropped)
attr title "packet drops: no carrier, packetBytes"
vector 2579 MstClusteringNetwork.node[49].ipv4.ip packetDropAddressResolutionFailed:vector(packetBytes) ETV
attr interpolationmode none
attr recordingmode vector(packetBytes)
attr source packetDropReasonIsAddressResolutionFailed(packetDropped)
attr title "packet drop: address resolution failed, packetBytes"
vector 2580 MstClusteringNetwork.node[49].ipv4.ip packetDropHopLimitReached:vector(packetBytes) ETV
attr interpolationmode none
attr recordingmode vector(packetBytes)
attr source packetDropReasonIsHopLimitReached(packetDropped)
attr title "packet drop: hop limit reached, packetBytes"
vector 2581 MstClusteringNetwork.node[49].ipv4.ip packetDropForwardingDisabled:vector(packetBytes) ETV
attr interpolationmode none
attr recordingmode vector(packetBytes)
attr source packetDropReasonIsForwardingDisabled(packetDropped)
attr title "packet drop: forwarding disabled, packetBytes"
vector 2582 MstClusteringNetwork.node[49].ipv4.ip packetDropNoInterfaceFound:vector(packetBytes) ETV
attr interpolationmode none
attr recordingmode vector(packetBytes)
attr source packetDropReasonIsNoInterfaceFound(packetDropped)
attr title "packet drop: no interface found, packetBytes"
vector 2583 MstClusteringNetwork.node[49].ipv4.ip packetDropNoRouteFound:vector(packetBytes) ETV
attr interpolationmode none
attr recordingmode vector(packetBytes)
attr source packetDropReasonIsNoRouteFound(packetDropped)
attr title "packet drop: no route found, packetBytes"
vector 2584 MstClusteringNetwork.node[49].ipv4.ip packetDropUndefined:vector(packetBytes) ETV
attr interpolationmode none
attr recordingmode vector(packetBytes)
attr source packetDropReasonIsUndefined(packetDropped)
attr title "packet drop: undefined, packetBytes"
vector 2585 MstClusteringNetwork.node[49].udp packetSent:vector(packetBytes) ETV
attr interpolationmode none
attr recordingmode vector(packetBytes)
attr source packetSent
attr title "packets sent, packetBytes"
vector 2586 MstClusteringNetwork.node[49].udp packetReceived:vector(packetBytes) ETV
attr interpolationmode none
attr recordingmode vector(packetBytes)
attr source packetReceived
attr title "packets received, packetBytes"
vector 2587 MstClusteringNetwork.node[49].udp passedUpPk:vector(count) ETV
attr interpolationmode none
attr recordingmode vector(count)
attr source packetSentToUpper
attr title "packets passed up, count"
vector 2588 MstClusteringNetwork.node[49].udp droppedPkWrongPort:vector(count) ETV
attr interpolationmode none
attr recordingmode vector(count)
attr source packetDropReasonIsNoPortFound(packetDropped)
attr title "packets dropped (wrong port), count"
vector 2589 MstClusteringNetwork.node[49].udp droppedPkBadChecksum:vector(count) ETV
attr interpolationmode none
attr recordingmode vector(count)
attr source packetDropReasonIsIncorrectlyReceived(packetDropped)
attr title "packets dropped (checksum error), count"
vector 2590 MstClusteringNetwork.node[49].mstClustering clusterId:vector ETV
attr recordingmode vector
attr title "Cluster ID"
vector 2591 MstClusteringNetwork.node[49].mstClustering clusterSize:vector ETV
attr recordingmode vector
attr title "Cluster Size"
vector 2592 MstClusteringNetwork.node[49].mstClustering isClusterHead:vector ETV
attr recordingmode vector
attr title "Is Cluster Head"
vector 2593 MstClusteringNetwork.node[49].mstClustering reClusteringCount:vector ETV
attr recordingmode vector
attr title "Re-clustering Count"
vector 2594 MstClusteringNetwork.node[49].mstClustering controlOverhead:vector ETV
attr recordingmode vector
attr title "Control Overhead"
vector 2595 MstClusteringNetwork.node[49].mstClustering clusterStability:vector ETV
attr recordingmode vector
attr title "Cluster Stability Time"
vector 2596 MstClusteringNetwork.node[49].mstClustering numNeighbors:vector ETV
attr recordingmode vector
attr title "Number of Neighbors"
vector 2597 MstClusteringNetwork.node[49].mstClustering energy:vector ETV
attr recordingmode vector
attr title "Remaining Energy"
vector 2598 MstClusteringNetwork.node[49].mstClustering numClusters:vector ETV
attr recordingmode vector
attr title "Number of Clusters"
vector 2599 MstClusteringNetwork.node[49].mstClustering mstEdgeCount:vector ETV
attr recordingmode vector
attr title "MST Edge Count"
7	0	10	0
7	0	10	0
7	0	10	0
7	0	10	0
7	0	10	0
8	0	10	0
8	0	10	0
8	0	10	0
8	0	10	0
8	0	10	0
39	0	10	0
40	0	10	0
41	0	10	0
59	0	10	0
59	0	10	0
59	0	10	0
59	0	10	0
59	0	10	0
60	0	10	0
60	0	10	0
60	0	10	0
60	0	10	0
60	0	10	0
91	0	10	0
92	0	10	0
93	0	10	0
111	0	10	0
111	0	10	0
111	0	10	0
111	0	10	0
111	0	10	0
112	0	10	0
112	0	10	0
112	0	10	0
112	0	10	0
112	0	10	0
143	0	10	0
144	0	10	0
145	0	10	0
163	0	10	0
163	0	10	0
163	0	10	0
163	0	10	0
163	0	10	0
164	0	10	0
164	0	10	0
164	0	10	0
164	0	10	0
164	0	10	0
195	0	10	0
196	0	10	0
197	0	10	0
215	0	10	0
215	0	10	0
215	0	10	0
215	0	10	0
215	0	10	0
216	0	10	0
216	0	10	0
216	0	10	0
216	0	10	0
216	0	10	0
247	0	10	0
248	0	10	0
249	0	10	0
267	0	10	0
267	0	10	0
267	0	10	0
267	0	10	0
267	0	10	0
268	0	10	0
268	0	10	0
268	0	10	0
268	0	10	0
268	0	10	0
299	0	10	0
300	0	10	0
301	0	10	0
319	0	10	0
319	0	10	0
319	0	10	0
319	0	10	0
319	0	10	0
320	0	10	0
320	0	10	0
320	0	10	0
320	0	10	0
320	0	10	0
351	0	10	0
352	0	10	0
353	0	10	0
371	0	10	0
371	0	10	0
371	0	10	0
371	0	10	0
371	0	10	0
372	0	10	0
372	0	10	0
372	0	10	0
372	0	10	0
372	0	10	0
403	0	10	0
404	0	10	0
405	0	10	0
423	0	10	0
423	0	10	0
423	0	10	0
423	0	10	0
423	0	10	0
424	0	10	0
424	0	10	0
424	0	10	0
424	0	10	0
424	0	10	0
455	0	10	0
456	0	10	0
457	0	10	0
475	0	10	0
475	0	10	0
475	0	10	0
475	0	10	0
475	0	10	0
476	0	10	0
476	0	10	0
476	0	10	0
476	0	10	0
476	0	10	0
507	0	10	0
508	0	10	0
509	0	10	0
527	0	10	0
527	0	10	0
527	0	10	0
527	0	10	0
527	0	10	0
528	0	10	0
528	0	10	0
528	0	10	0
528	0	10	0
528	0	10	0
559	0	10	0
560	0	10	0
561	0	10	0
579	0	10	0
579	0	10	0
579	0	10	0
579	0	10	0
579	0	10	0
580	0	10	0
580	0	10	0
580	0	10	0
580	0	10	0
580	0	10	0
611	0	10	0
612	0	10	0
613	0	10	0
631	0	10	0
631	0	10	0
631	0	10	0
631	0	10	0
631	0	10	0
632	0	10	0
632	0	10	0
632	0	10	0
632	0	10	0
632	0	10	0
663	0	10	0
664	0	10	0
665	0	10	0
683	0	10	0
683	0	10	0
683	0	10	0
683	0	10	0
683	0	10	0
684	0	10	0
684	0	10	0
684	0	10	0
684	0	10	0
684	0	10	0
715	0	10	0
716	0	10	0
717	0	10	0
735	0	10	0
735	0	10	0
735	0	10	0
735	0	10	0
735	0	10	0
736	0	10	0
736	0	10	0
736	0	10	0
736	0	10	0
736	0	10	0
767	0	10	0
768	0	10	0
769	0	10	0
787	0	10	0
787	0	10	0
787	0	10	0
787	0	10	0
787	0	10	0
788	0	10	0
788	0	10	0
788	0	10	0
788	0	10	0
788	0	10	0
819	0	10	0
820	0	10	0
821	0	10	0
839	0	10	0
839	0	10	0
839	0	10	0
839	0	10	0
839	0	10	0
840	0	10	0
840	0	10	0
840	0	10	0
840	0	10	0
840	0	10	0
871	0	10	0
872	0	10	0
873	0	10	0
891	0	10	0
891	0	10	0
891	0	10	0
891	0	10	0
891	0	10	0
892	0	10	0
892	0	10	0
892	0	10	0
892	0	10	0
892	0	10	0
923	0	10	0
924	0	10	0
925	0	10	0
943	0	10	0
943	0	10	0
943	0	10	0
943	0	10	0
943	0	10	0
944	0	10	0
944	0	10	0
944	0	10	0
944	0	10	0
944	0	10	0
975	0	10	0
976	0	10	0
977	0	10	0
995	0	10	0
995	0	10	0
995	0	10	0
995	0	10	0
995	0	10	0
996	0	10	0
996	0	10	0
996	0	10	0
996	0	10	0
996	0	10	0
1027	0	10	0
1028	0	10	0
1029	0	10	0
1047	0	10	0
1047	0	10	0
1047	0	10	0
1047	0	10	0
1047	0	10	0
1048	0	10	0
1048	0	10	0
1048	0	10	0
1048	0	10	0
1048	0	10	0
1079	0	10	0
1080	0	10	0
1081	0	10	0
1099	0	10	0
1099	0	10	0
1099	0	10	0
1099	0	10	0
1099	0	10	0
1100	0	10	0
1100	0	10	0
1100	0	10	0
1100	0	10	0
1100	0	10	0
1131	0	10	0
1132	0	10	0
1133	0	10	0
1151	0	10	0
1151	0	10	0
1151	0	10	0
1151	0	10	0
1151	0	10	0
1152	0	10	0
1152	0	10	0
1152	0	10	0
1152	0	10	0
1152	0	10	0
1183	0	10	0
1184	0	10	0
1185	0	10	0
1203	0	10	0
1203	0	10	0
1203	0	10	0
1203	0	10	0
1203	0	10	0
1204	0	10	0
1204	0	10	0
1204	0	10	0
1204	0	10	0
1204	0	10	0
1235	0	10	0
1236	0	10	0
1237	0	10	0
1255	0	10	0
1255	0	10	0
1255	0	10	0
1255	0	10	0
1255	0	10	0
1256	0	10	0
1256	0	10	0
1256	0	10	0
1256	0	10	0
1256	0	10	0
1287	0	10	0
1288	0	10	0
1289	0	10	0
1307	0	10	0
1307	0	10	0
1307	0	10	0
1307	0	10	0
1307	0	10	0
1308	0	10	0
1308	0	10	0
1308	0	10	0
1308	0	10	0
1308	0	10	0
1339	0	10	0
1340	0	10	0
1341	0	10	0
1359	0	10	0
1359	0	10	0
1359	0	10	0
1359	0	10	0
1359	0	10	0
1360	0	10	0
1360	0	10	0
1360	0	10	0
1360	0	10	0
1360	0	10	0
1391	0	10	0
1392	0	10	0
1393	0	10	0
1411	0	10	0
1411	0	10	0
1411	0	10	0
1411	0	10	0
1411	0	10	0
1412	0	10	0
1412	0	10	0
1412	0	10	0
1412	0	10	0
1412	0	10	0
1443	0	10	0
1444	0	10	0
1445	0	10	0
1463	0	10	0
1463	0	10	0
1463	0	10	0
1463	0	10	0
1463	0	10	0
1464	0	10	0
1464	0	10	0
1464	0	10	0
1464	0	10	0
1464	0	10	0
1495	0	10	0
1496	0	10	0
1497	0	10	0
1515	0	10	0
1515	0	10	0
1515	0	10	0
1515	0	10	0
1515	0	10	0
1516	0	10	0
1516	0	10	0
1516	0	10	0
1516	0	10	0
1516	0	10	0
1547	0	10	0
1548	0	10	0
1549	0	10	0
1567	0	10	0
1567	0	10	0
1567	0	10	0
1567	0	10	0
1567	0	10	0
1568	0	10	0
1568	0	10	0
1568	0	10	0
1568	0	10	0
1568	0	10	0
1599	0	10	0
1600	0	10	0
1601	0	10	0
1619	0	10	0
1619	0	10	0
1619	0	10	0
1619	0	10	0
1619	0	10	0
1620	0	10	0
1620	0	10	0
1620	0	10	0
1620	0	10	0
1620	0	10	0
1651	0	10	0
1652	0	10	0
1653	0	10	0
1671	0	10	0
1671	0	10	0
1671	0	10	0
1671	0	10	0
1671	0	10	0
1672	0	10	0
1672	0	10	0
1672	0	10	0
1672	0	10	0
1672	0	10	0
1703	0	10	0
1704	0	10	0
1705	0	10	0
1723	0	10	0
1723	0	10	0
1723	0	10	0
1723	0	10	0
1723	0	10	0
1724	0	10	0
1724	0	10	0
1724	0	10	0
1724	0	10	0
1724	0	10	0
1755	0	10	0
1756	0	10	0
1757	0	10	0
1775	0	10	0
1775	0	10	0
1775	0	10	0
1775	0	10	0
1775	0	10	0
1776	0	10	0
1776	0	10	0
1776	0	10	0
1776	0	10	0
1776	0	10	0
1807	0	10	0
1808	0	10	0
1809	0	10	0
1827	0	10	0
1827	0	10	0
1827	0	10	0
1827	0	10	0
1827	0	10	0
1828	0	10	0
1828	0	10	0
1828	0	10	0
1828	0	10	0
1828	0	10	0
1859	0	10	0
1860	0	10	0
1861	0	10	0
1879	0	10	0
1879	0	10	0
1879	0	10	0
1879	0	10	0
1879	0	10	0
1880	0	10	0
1880	0	10	0
1880	0	10	0
1880	0	10	0
1880	0	10	0
1911	0	10	0
1912	0	10	0
1913	0	10	0
1931	0	10	0
1931	0	10	0
1931	0	10	0
1931	0	10	0
1931	0	10	0
1932	0	10	0
1932	0	10	0
1932	0	10	0
1932	0	10	0
1932	0	10	0
1963	0	10	0
1964	0	10	0
1965	0	10	0
1983	0	10	0
1983	0	10	0
1983	0	10	0
1983	0	10	0
1983	0	10	0
1984	0	10	0
1984	0	10	0
1984	0	10	0
1984	0	10	0
1984	0	10	0
2015	0	10	0
2016	0	10	0
2017	0	10	0
2035	0	10	0
2035	0	10	0
2035	0	10	0
2035	0	10	0
2035	0	10	0
2036	0	10	0
2036	0	10	0
2036	0	10	0
2036	0	10	0
2036	0	10	0
2067	0	10	0
2068	0	10	0
2069	0	10	0
2087	0	10	0
2087	0	10	0
2087	0	10	0
2087	0	10	0
2087	0	10	0
2088	0	10	0
2088	0	10	0
2088	0	10	0
2088	0	10	0
2088	0	10	0
2119	0	10	0
2120	0	10	0
2121	0	10	0
2139	0	10	0
2139	0	10	0
2139	0	10	0
2139	0	10	0
2139	0	10	0
2140	0	10	0
2140	0	10	0
2140	0	10	0
2140	0	10	0
2140	0	10	0
2171	0	10	0
2172	0	10	0
2173	0	10	0
2191	0	10	0
2191	0	10	0
2191	0	10	0
2191	0	10	0
2191	0	10	0
2192	0	10	0
2192	0	10	0
2192	0	10	0
2192	0	10	0
2192	0	10	0
2223	0	10	0
2224	0	10	0
2225	0	10	0
2243	0	10	0
2243	0	10	0
2243	0	10	0
2243	0	10	0
2243	0	10	0
2244	0	10	0
2244	0	10	0
2244	0	10	0
2244	0	10	0
2244	0	10	0
2275	0	10	0
2276	0	10	0
2277	0	10	0
2295	0	10	0
2295	0	10	0
2295	0	10	0
2295	0	10	0
2295	0	10	0
2296	0	10	0
2296	0	10	0
2296	0	10	0
2296	0	10	0
2296	0	10	0
2327	0	10	0
2328	0	10	0
2329	0	10	0
2347	0	10	0
2347	0	10	0
2347	0	10	0
2347	0	10	0
2347	0	10	0
2348	0	10	0
2348	0	10	0
2348	0	10	0
2348	0	10	0
2348	0	10	0
2379	0	10	0
2380	0	10	0
2381	0	10	0
2399	0	10	0
2399	0	10	0
2399	0	10	0
2399	0	10	0
2399	0	10	0
2400	0	10	0
2400	0	10	0
2400	0	10	0
2400	0	10	0
2400	0	10	0
2431	0	10	0
2432	0	10	0
2433	0	10	0
2451	0	10	0
2451	0	10	0
2451	0	10	0
2451	0	10	0
2451	0	10	0
2452	0	10	0
2452	0	10	0
2452	0	10	0
2452	0	10	0
2452	0	10	0
2483	0	10	0
2484	0	10	0
2485	0	10	0
2503	0	10	0
2503	0	10	0
2503	0	10	0
2503	0	10	0
2503	0	10	0
2504	0	10	0
2504	0	10	0
2504	0	10	0
2504	0	10	0
2504	0	10	0
2535	0	10	0
2536	0	10	0
2537	0	10	0
2555	0	10	0
2555	0	10	0
2555	0	10	0
2555	0	10	0
2555	0	10	0
2556	0	10	0
2556	0	10	0
2556	0	10	0
2556	0	10	0
2556	0	10	0
2587	0	10	0
2588	0	10	0
2589	0	10	0

