version 3
run Wireless10-0-20251123-23:19:01-82215
attr configname Wireless10
attr datetime 20251123-23:19:01
attr datetimef 20251123-231901
attr experiment Wireless10
attr inifile omnetpp.ini
attr iterationvars ""
attr iterationvarsd ""
attr iterationvarsf ""
attr measurement ""
attr network WirelessB
attr processid 82215
attr repetition 0
attr replication #0
attr resultdir results
attr runnumber 0
attr seedset 0
config image-path ../inet4.5/images
config description "Configuring ad-hoc routing (AODV)"
config extends Wireless09
config *.configurator.addStaticRoutes false
config *.host*.typename AodvRouter
config *.hostB.wlan[0].radio.displayCommunicationRange true
config *.visualizer.dataLinkVisualizer.packetFilter "\"AODV*\""
config description "Configuring node movements"
config extends Wireless08
config **.constraintAreaMinX 0m
config **.constraintAreaMinY 0m
config **.constraintAreaMinZ 0m
config **.constraintAreaMaxX 1000m
config **.constraintAreaMaxY 1000m
config **.constraintAreaMaxZ 0m
config *.hostR*.mobility.typename LinearMobility
config *.hostR*.mobility.speed 50mps
config *.hostR*.mobility.initialMovementHeading uniform(0deg,360deg)
config *.host*.wlan[0].queue.packetCapacity 10
config *.visualizer.mobilityVisualizer.displayVelocities true
config *.visualizer.mobilityVisualizer.displayMovementTrails true
config description "Modeling energy consumption"
config extends Wireless07
config *.host*.wlan[0].radio.energyConsumer.typename StateBasedEpEnergyConsumer
config *.host*.wlan[0].radio.energyConsumer.offPowerConsumption 0mW
config *.host*.wlan[0].radio.energyConsumer.sleepPowerConsumption 1mW
config *.host*.wlan[0].radio.energyConsumer.switchingPowerConsumption 1mW
config *.host*.wlan[0].radio.energyConsumer.receiverIdlePowerConsumption 2mW
config *.host*.wlan[0].radio.energyConsumer.receiverBusyPowerConsumption 5mW
config *.host*.wlan[0].radio.energyConsumer.receiverReceivingPowerConsumption 10mW
config *.host*.wlan[0].radio.energyConsumer.transmitterIdlePowerConsumption 2mW
config *.host*.wlan[0].radio.energyConsumer.transmitterTransmittingPowerConsumption 100mW
config *.host*.energyStorage.typename IdealEpEnergyStorage
config *.host*.wlan[0].radio.displayInterferenceRange false
config *.hostR1.wlan[0].radio.displayCommunicationRange false
config *.visualizer.mediumVisualizer.displaySignals false
config description "Turning on ACKs in CSMA"
config extends Wireless06
config *.host*.wlan[0].mac.useAck true
config description "Using CSMA to better utilize the medium"
config extends Wireless05
config *.host*.wlan[0].typename WirelessInterface
config *.host*.wlan[0].radio.typename UnitDiskRadio
config *.host*.wlan[0].mac.typename CsmaCaMac
config *.host*.wlan[0].mac.ackTimeout 300us
config *.host*.wlan[0].queue.typename DropTailQueue
config *.host*.wlan[0].queue.packetCapacity -1
config description "Taking interference into account"
config extends Wireless04
config *.host*.wlan[0].radio.receiver.ignoreInterference false
config *.host*.wlan[0].radio.transmitter.interferenceRange 500m
config *.hostA.wlan[0].radio.displayInterferenceRange true
config *.visualizer.dataLinkVisualizer.packetFilter "\"\""
config description "Setting up static routing"
config extends Wireless03
config *.host*.forwarding true
config *.configurator.config "xml(\"<config><interface hosts='**' address='10.0.0.x' netmask='255.255.255.0'/><autoroute metric='errorRate'/></config>\")"
config *.configurator.optimizeRoutes false
config *.host*.ipv4.routingTable.netmaskRoutes "\"\""
config *.visualizer.physicalLinkVisualizer.displayLinks true
config *.visualizer.dataLinkVisualizer.displayLinks true
config *.visualizer.networkRouteVisualizer.displayRoutes true
config *.visualizer.*LinkVisualizer.lineShift 0
config *.visualizer.networkRouteVisualizer.lineShift 0
config *.visualizer.networkRouteVisualizer.packetFilter "\"UDPData*\""
config description "Adding more nodes and decreasing the communication range"
config extends Wireless02
config network WirelessB
config *.host*.wlan[0].radio.transmitter.communicationRange 250m
config *.hostR1.wlan[0].radio.displayCommunicationRange true
config description "Setting up some animations"
config extends Wireless01
config *.hostA.wlan[0].radio.displayCommunicationRange true
config *.visualizer.sceneVisualizer.descriptionFigure "\"title\""
config *.visualizer.mediumVisualizer.displaySignals true
config *.visualizer.physicalLinkVisualizer.displayLinks true
config *.visualizer.physicalLinkVisualizer.packetFilter "\"UDPData*\""
config description "Two hosts communicating wirelessly"
config network WirelessA
config sim-time-limit 20s
config *.host*.ipv4.arp.typename GlobalArp
config *.hostA.numApps 1
config *.hostA.app[0].typename UdpBasicApp
config *.hostA.app[0].destAddresses "\"hostB\""
config *.hostA.app[0].destPort 5000
config *.hostA.app[0].messageLength 1000B
config *.hostA.app[0].sendInterval exponential(12ms)
config *.hostA.app[0].packetName "\"UDPData\""
config *.hostB.numApps 1
config *.hostB.app[0].typename UdpSink
config *.hostB.app[0].localPort 5000
config *.host*.wlan[0].typename AckingWirelessInterface
config *.host*.wlan[0].mac.useAck false
config *.host*.wlan[0].mac.fullDuplex false
config *.host*.wlan[0].radio.transmitter.communicationRange 500m
config *.host*.wlan[0].radio.receiver.ignoreInterference true
config *.host*.wlan[0].mac.headerLength 23B
config *.host*.**.bitrate 1Mbps

vector 0 WirelessB.hostA.energyStorage powerConsumption:vector ETV
attr interpolationmode sample-hold
attr recordingmode vector
attr source powerConsumptionChanged
attr title "Power consumption"
attr unit W
vector 1 WirelessB.hostA.energyStorage powerGeneration:vector ETV
attr interpolationmode sample-hold
attr recordingmode vector
attr source powerGenerationChanged
attr title "Power generation"
attr unit W
vector 2 WirelessB.hostA.energyStorage residualEnergyCapacity:vector ETV
attr interpolationmode linear
attr recordingmode vector
attr source residualEnergyCapacityChanged
attr title "Residual energy capacity"
attr unit J
vector 3 WirelessB.hostA.lo[0].lo rcvdPkFromHl:vector(packetBytes) ETV
attr interpolationmode none
attr recordingmode vector(packetBytes)
attr source packetReceivedFromUpper
attr title "packets received from higher layer, packetBytes"
vector 4 WirelessB.hostA.lo[0].lo passedUpPk:vector(packetBytes) ETV
attr interpolationmode none
attr recordingmode vector(packetBytes)
attr source packetSentToUpper
attr title "packets passed to higher layer, packetBytes"
vector 5 WirelessB.hostA.lo[0] packetDropInterfaceDown:vector(packetBytes) ETV
attr interpolationmode none
attr recordingmode vector(packetBytes)
attr source packetDropReasonIsInterfaceDown(packetDropped)
attr title "packet drops: interface down, packetBytes"
vector 6 WirelessB.hostA.lo[0] packetDropNoCarrier:vector(packetBytes) ETV
attr interpolationmode none
attr recordingmode vector(packetBytes)
attr source packetDropReasonIsNoCarrier(packetDropped)
attr title "packet drops: no carrier, packetBytes"
vector 7 WirelessB.hostA.wlan[0].queue queueLength:vector ETV
attr autoWarmupFilter false
attr interpolationmode sample-hold
attr recordingmode vector
attr source "warmup(atomic(constant0(packetPushEnded) + count(packetPushStarted) - count(packetPulled) - count(packetRemoved) - count(packetDropped)))"
attr title "queue length"
attr unit pk
vector 8 WirelessB.hostA.wlan[0].queue queueBitLength:vector ETV
attr autoWarmupFilter false
attr interpolationmode sample-hold
attr recordingmode vector
attr source "warmup(atomic(constant0(packetPushEnded) + sum(packetLength(packetPushStarted)) - sum(packetLength(packetPulled)) - sum(packetLength(packetRemoved)) - sum(packetLength(packetDropped))))"
attr title "queue bit length"
attr unit b
vector 9 WirelessB.hostA.wlan[0].queue queueingTime:vector ETV
attr interpolationmode none
attr recordingmode vector
attr source queueingTime(packetPulled)
attr title "queueing times"
attr unit s
vector 10 WirelessB.hostA.wlan[0].queue incomingPacketLengths:vector ETV
attr interpolationmode none
attr recordingmode vector
attr source packetLength(packetPushStarted)
attr title "incoming packet lengths"
attr unit b
vector 11 WirelessB.hostA.wlan[0].queue incomingDataRate:vector ETV
attr interpolationmode linear
attr recordingmode vector
attr source throughput(packetPushStarted)
attr title "incoming datarate"
attr unit bps
vector 12 WirelessB.hostA.wlan[0].queue outgoingPacketLengths:vector ETV
attr interpolationmode none
attr recordingmode vector
attr source packetLength(packetPulled)
attr title "outgoing packet lengths"
attr unit b
vector 13 WirelessB.hostA.wlan[0].queue outgoingDataRate:vector ETV
attr interpolationmode linear
attr recordingmode vector
attr source throughput(packetPulled)
attr title "outgoing datarate"
attr unit bps
vector 14 WirelessB.hostA.wlan[0].queue droppedPacketLengthsQueueOverflow:vector ETV
attr interpolationmode none
attr recordingmode vector
attr source packetLength(packetDropReasonIsQueueOverflow(packetDropped))
attr title "dropped packet lengths: queue overflow"
attr unit b
vector 15 WirelessB.hostA.wlan[0].queue flowQueueingTime:vector ETV
attr interpolationmode none
attr recordingmode vector
attr source queueingTime(demuxFlow(packetPulled))
attr title "flow queueing times"
attr unit s
vector 16 WirelessB.hostA.wlan[0].queue flowIncomingDataRate:vector ETV
attr interpolationmode linear
attr recordingmode vector
attr source throughput(flowPacketLength(demuxFlow(packetPushStarted)))
attr title "flow specific incoming data rate"
attr unit bps
vector 17 WirelessB.hostA.wlan[0].queue flowOutgoingDataRate:vector ETV
attr interpolationmode linear
attr recordingmode vector
attr source throughput(flowPacketLength(demuxFlow(packetPulled)))
attr title "flow specific outgoing data rate"
attr unit bps
vector 18 WirelessB.hostA.wlan[0].mac packetDropIncorrectlyReceived:vector(packetBytes) ETV
attr interpolationmode none
attr recordingmode vector(packetBytes)
attr source packetDropReasonIsIncorrectlyReceived(packetDropped)
attr title "packet drop: incorrectly received, packetBytes"
vector 19 WirelessB.hostA.wlan[0].mac packetDropNotAddressedToUs:vector(packetBytes) ETV
attr interpolationmode none
attr recordingmode vector(packetBytes)
attr source packetDropReasonIsNotAddressedToUs(packetDropped)
attr title "packet drop: not addressed to us, packetBytes"
vector 20 WirelessB.hostA.wlan[0].mac packetDropQueueOverflow:vector(packetBytes) ETV
attr interpolationmode none
attr recordingmode vector(packetBytes)
attr source packetDropReasonIsQueueOverflow(packetDropped)
attr title "packet drop: queue overflow, packetBytes"
vector 21 WirelessB.hostA.wlan[0].mac packetDropRetryLimitReached:vector(packetBytes) ETV
attr interpolationmode none
attr recordingmode vector(packetBytes)
attr source packetDropReasonIsRetryLimitReached(packetDropped)
attr title "packet drop: retry limit reached, packetBytes"
vector 22 WirelessB.hostA.wlan[0].radio.energyConsumer powerConsumption:vector ETV
attr interpolationmode sample-hold
attr recordingmode vector
attr source powerConsumptionChanged
attr title "Power consumption"
attr unit W
vector 23 WirelessB.hostA.wlan[0].radio radioMode:vector ETV
attr interpolationmode sample-hold
attr recordingmode vector
attr source radioModeChanged
attr title "Radio mode"
vector 24 WirelessB.hostA.wlan[0].radio receptionState:vector ETV
attr interpolationmode sample-hold
attr recordingmode vector
attr source receptionStateChanged
attr title "Radio reception state"
vector 25 WirelessB.hostA.wlan[0].radio transmissionState:vector ETV
attr interpolationmode sample-hold
attr recordingmode vector
attr source transmissionStateChanged
attr title "Radio transmission state"
vector 26 WirelessB.hostA.wlan[0] packetDropInterfaceDown:vector(packetBytes) ETV
attr interpolationmode none
attr recordingmode vector(packetBytes)
attr source packetDropReasonIsInterfaceDown(packetDropped)
attr title "packet drops: interface down, packetBytes"
vector 27 WirelessB.hostA.wlan[0] packetDropNoCarrier:vector(packetBytes) ETV
attr interpolationmode none
attr recordingmode vector(packetBytes)
attr source packetDropReasonIsNoCarrier(packetDropped)
attr title "packet drops: no carrier, packetBytes"
vector 28 WirelessB.hostA.ipv4.ip packetDropAddressResolutionFailed:vector(packetBytes) ETV
attr interpolationmode none
attr recordingmode vector(packetBytes)
attr source packetDropReasonIsAddressResolutionFailed(packetDropped)
attr title "packet drop: address resolution failed, packetBytes"
vector 29 WirelessB.hostA.ipv4.ip packetDropHopLimitReached:vector(packetBytes) ETV
attr interpolationmode none
attr recordingmode vector(packetBytes)
attr source packetDropReasonIsHopLimitReached(packetDropped)
attr title "packet drop: hop limit reached, packetBytes"
vector 30 WirelessB.hostA.ipv4.ip packetDropForwardingDisabled:vector(packetBytes) ETV
attr interpolationmode none
attr recordingmode vector(packetBytes)
attr source packetDropReasonIsForwardingDisabled(packetDropped)
attr title "packet drop: forwarding disabled, packetBytes"
vector 31 WirelessB.hostA.ipv4.ip packetDropNoInterfaceFound:vector(packetBytes) ETV
attr interpolationmode none
attr recordingmode vector(packetBytes)
attr source packetDropReasonIsNoInterfaceFound(packetDropped)
attr title "packet drop: no interface found, packetBytes"
vector 32 WirelessB.hostA.ipv4.ip packetDropNoRouteFound:vector(packetBytes) ETV
attr interpolationmode none
attr recordingmode vector(packetBytes)
attr source packetDropReasonIsNoRouteFound(packetDropped)
attr title "packet drop: no route found, packetBytes"
vector 33 WirelessB.hostA.ipv4.ip packetDropUndefined:vector(packetBytes) ETV
attr interpolationmode none
attr recordingmode vector(packetBytes)
attr source packetDropReasonIsUndefined(packetDropped)
attr title "packet drop: undefined, packetBytes"
vector 34 WirelessB.hostA.udp packetSent:vector(packetBytes) ETV
attr interpolationmode none
attr recordingmode vector(packetBytes)
attr source packetSent
attr title "packets sent, packetBytes"
vector 35 WirelessB.hostA.udp packetReceived:vector(packetBytes) ETV
attr interpolationmode none
attr recordingmode vector(packetBytes)
attr source packetReceived
attr title "packets received, packetBytes"
vector 36 WirelessB.hostA.udp passedUpPk:vector(count) ETV
attr interpolationmode none
attr recordingmode vector(count)
attr source packetSentToUpper
attr title "packets passed up, count"
vector 37 WirelessB.hostA.udp droppedPkWrongPort:vector(count) ETV
attr interpolationmode none
attr recordingmode vector(count)
attr source packetDropReasonIsNoPortFound(packetDropped)
attr title "packets dropped (wrong port), count"
vector 38 WirelessB.hostA.udp droppedPkBadChecksum:vector(count) ETV
attr interpolationmode none
attr recordingmode vector(count)
attr source packetDropReasonIsIncorrectlyReceived(packetDropped)
attr title "packets dropped (checksum error), count"
vector 39 WirelessB.hostA.app[0] packetReceived:vector(packetBytes) ETV
attr interpolationmode none
attr recordingmode vector(packetBytes)
attr source packetReceived
attr title "packets received, packetBytes"
vector 40 WirelessB.hostA.app[0] throughput:vector ETV
attr recordingmode vector
attr source throughput(packetReceived)
attr title throughput
attr unit bps
vector 41 WirelessB.hostA.app[0] packetSent:vector(packetBytes) ETV
attr interpolationmode none
attr recordingmode vector(packetBytes)
attr source packetSent
attr title "packets sent, packetBytes"
vector 42 WirelessB.hostA.app[0] rcvdPkLifetime:vector ETV
attr interpolationmode none
attr recordingmode vector
attr source dataAge(packetReceived)
attr title "received packet lifetime"
attr unit s
vector 43 WirelessB.hostA.app[0] rcvdPkSeqNo:vector ETV
attr interpolationmode none
attr recordingmode vector
attr source appPkSeqNo(packetReceived)
attr title "received packet sequence number"
vector 44 WirelessB.hostB.energyStorage powerConsumption:vector ETV
attr interpolationmode sample-hold
attr recordingmode vector
attr source powerConsumptionChanged
attr title "Power consumption"
attr unit W
vector 45 WirelessB.hostB.energyStorage powerGeneration:vector ETV
attr interpolationmode sample-hold
attr recordingmode vector
attr source powerGenerationChanged
attr title "Power generation"
attr unit W
vector 46 WirelessB.hostB.energyStorage residualEnergyCapacity:vector ETV
attr interpolationmode linear
attr recordingmode vector
attr source residualEnergyCapacityChanged
attr title "Residual energy capacity"
attr unit J
vector 47 WirelessB.hostB.lo[0].lo rcvdPkFromHl:vector(packetBytes) ETV
attr interpolationmode none
attr recordingmode vector(packetBytes)
attr source packetReceivedFromUpper
attr title "packets received from higher layer, packetBytes"
vector 48 WirelessB.hostB.lo[0].lo passedUpPk:vector(packetBytes) ETV
attr interpolationmode none
attr recordingmode vector(packetBytes)
attr source packetSentToUpper
attr title "packets passed to higher layer, packetBytes"
vector 49 WirelessB.hostB.lo[0] packetDropInterfaceDown:vector(packetBytes) ETV
attr interpolationmode none
attr recordingmode vector(packetBytes)
attr source packetDropReasonIsInterfaceDown(packetDropped)
attr title "packet drops: interface down, packetBytes"
vector 50 WirelessB.hostB.lo[0] packetDropNoCarrier:vector(packetBytes) ETV
attr interpolationmode none
attr recordingmode vector(packetBytes)
attr source packetDropReasonIsNoCarrier(packetDropped)
attr title "packet drops: no carrier, packetBytes"
vector 51 WirelessB.hostB.wlan[0].queue queueLength:vector ETV
attr autoWarmupFilter false
attr interpolationmode sample-hold
attr recordingmode vector
attr source "warmup(atomic(constant0(packetPushEnded) + count(packetPushStarted) - count(packetPulled) - count(packetRemoved) - count(packetDropped)))"
attr title "queue length"
attr unit pk
vector 52 WirelessB.hostB.wlan[0].queue queueBitLength:vector ETV
attr autoWarmupFilter false
attr interpolationmode sample-hold
attr recordingmode vector
attr source "warmup(atomic(constant0(packetPushEnded) + sum(packetLength(packetPushStarted)) - sum(packetLength(packetPulled)) - sum(packetLength(packetRemoved)) - sum(packetLength(packetDropped))))"
attr title "queue bit length"
attr unit b
vector 53 WirelessB.hostB.wlan[0].queue queueingTime:vector ETV
attr interpolationmode none
attr recordingmode vector
attr source queueingTime(packetPulled)
attr title "queueing times"
attr unit s
vector 54 WirelessB.hostB.wlan[0].queue incomingPacketLengths:vector ETV
attr interpolationmode none
attr recordingmode vector
attr source packetLength(packetPushStarted)
attr title "incoming packet lengths"
attr unit b
vector 55 WirelessB.hostB.wlan[0].queue incomingDataRate:vector ETV
attr interpolationmode linear
attr recordingmode vector
attr source throughput(packetPushStarted)
attr title "incoming datarate"
attr unit bps
vector 56 WirelessB.hostB.wlan[0].queue outgoingPacketLengths:vector ETV
attr interpolationmode none
attr recordingmode vector
attr source packetLength(packetPulled)
attr title "outgoing packet lengths"
attr unit b
vector 57 WirelessB.hostB.wlan[0].queue outgoingDataRate:vector ETV
attr interpolationmode linear
attr recordingmode vector
attr source throughput(packetPulled)
attr title "outgoing datarate"
attr unit bps
vector 58 WirelessB.hostB.wlan[0].queue droppedPacketLengthsQueueOverflow:vector ETV
attr interpolationmode none
attr recordingmode vector
attr source packetLength(packetDropReasonIsQueueOverflow(packetDropped))
attr title "dropped packet lengths: queue overflow"
attr unit b
vector 59 WirelessB.hostB.wlan[0].queue flowQueueingTime:vector ETV
attr interpolationmode none
attr recordingmode vector
attr source queueingTime(demuxFlow(packetPulled))
attr title "flow queueing times"
attr unit s
vector 60 WirelessB.hostB.wlan[0].queue flowIncomingDataRate:vector ETV
attr interpolationmode linear
attr recordingmode vector
attr source throughput(flowPacketLength(demuxFlow(packetPushStarted)))
attr title "flow specific incoming data rate"
attr unit bps
vector 61 WirelessB.hostB.wlan[0].queue flowOutgoingDataRate:vector ETV
attr interpolationmode linear
attr recordingmode vector
attr source throughput(flowPacketLength(demuxFlow(packetPulled)))
attr title "flow specific outgoing data rate"
attr unit bps
vector 62 WirelessB.hostB.wlan[0].mac packetDropIncorrectlyReceived:vector(packetBytes) ETV
attr interpolationmode none
attr recordingmode vector(packetBytes)
attr source packetDropReasonIsIncorrectlyReceived(packetDropped)
attr title "packet drop: incorrectly received, packetBytes"
vector 63 WirelessB.hostB.wlan[0].mac packetDropNotAddressedToUs:vector(packetBytes) ETV
attr interpolationmode none
attr recordingmode vector(packetBytes)
attr source packetDropReasonIsNotAddressedToUs(packetDropped)
attr title "packet drop: not addressed to us, packetBytes"
vector 64 WirelessB.hostB.wlan[0].mac packetDropQueueOverflow:vector(packetBytes) ETV
attr interpolationmode none
attr recordingmode vector(packetBytes)
attr source packetDropReasonIsQueueOverflow(packetDropped)
attr title "packet drop: queue overflow, packetBytes"
vector 65 WirelessB.hostB.wlan[0].mac packetDropRetryLimitReached:vector(packetBytes) ETV
attr interpolationmode none
attr recordingmode vector(packetBytes)
attr source packetDropReasonIsRetryLimitReached(packetDropped)
attr title "packet drop: retry limit reached, packetBytes"
vector 66 WirelessB.hostB.wlan[0].radio.energyConsumer powerConsumption:vector ETV
attr interpolationmode sample-hold
attr recordingmode vector
attr source powerConsumptionChanged
attr title "Power consumption"
attr unit W
vector 67 WirelessB.hostB.wlan[0].radio radioMode:vector ETV
attr interpolationmode sample-hold
attr recordingmode vector
attr source radioModeChanged
attr title "Radio mode"
vector 68 WirelessB.hostB.wlan[0].radio receptionState:vector ETV
attr interpolationmode sample-hold
attr recordingmode vector
attr source receptionStateChanged
attr title "Radio reception state"
vector 69 WirelessB.hostB.wlan[0].radio transmissionState:vector ETV
attr interpolationmode sample-hold
attr recordingmode vector
attr source transmissionStateChanged
attr title "Radio transmission state"
vector 70 WirelessB.hostB.wlan[0] packetDropInterfaceDown:vector(packetBytes) ETV
attr interpolationmode none
attr recordingmode vector(packetBytes)
attr source packetDropReasonIsInterfaceDown(packetDropped)
attr title "packet drops: interface down, packetBytes"
vector 71 WirelessB.hostB.wlan[0] packetDropNoCarrier:vector(packetBytes) ETV
attr interpolationmode none
attr recordingmode vector(packetBytes)
attr source packetDropReasonIsNoCarrier(packetDropped)
attr title "packet drops: no carrier, packetBytes"
vector 72 WirelessB.hostB.ipv4.ip packetDropAddressResolutionFailed:vector(packetBytes) ETV
attr interpolationmode none
attr recordingmode vector(packetBytes)
attr source packetDropReasonIsAddressResolutionFailed(packetDropped)
attr title "packet drop: address resolution failed, packetBytes"
vector 73 WirelessB.hostB.ipv4.ip packetDropHopLimitReached:vector(packetBytes) ETV
attr interpolationmode none
attr recordingmode vector(packetBytes)
attr source packetDropReasonIsHopLimitReached(packetDropped)
attr title "packet drop: hop limit reached, packetBytes"
vector 74 WirelessB.hostB.ipv4.ip packetDropForwardingDisabled:vector(packetBytes) ETV
attr interpolationmode none
attr recordingmode vector(packetBytes)
attr source packetDropReasonIsForwardingDisabled(packetDropped)
attr title "packet drop: forwarding disabled, packetBytes"
vector 75 WirelessB.hostB.ipv4.ip packetDropNoInterfaceFound:vector(packetBytes) ETV
attr interpolationmode none
attr recordingmode vector(packetBytes)
attr source packetDropReasonIsNoInterfaceFound(packetDropped)
attr title "packet drop: no interface found, packetBytes"
vector 76 WirelessB.hostB.ipv4.ip packetDropNoRouteFound:vector(packetBytes) ETV
attr interpolationmode none
attr recordingmode vector(packetBytes)
attr source packetDropReasonIsNoRouteFound(packetDropped)
attr title "packet drop: no route found, packetBytes"
vector 77 WirelessB.hostB.ipv4.ip packetDropUndefined:vector(packetBytes) ETV
attr interpolationmode none
attr recordingmode vector(packetBytes)
attr source packetDropReasonIsUndefined(packetDropped)
attr title "packet drop: undefined, packetBytes"
vector 78 WirelessB.hostB.udp packetSent:vector(packetBytes) ETV
attr interpolationmode none
attr recordingmode vector(packetBytes)
attr source packetSent
attr title "packets sent, packetBytes"
vector 79 WirelessB.hostB.udp packetReceived:vector(packetBytes) ETV
attr interpolationmode none
attr recordingmode vector(packetBytes)
attr source packetReceived
attr title "packets received, packetBytes"
vector 80 WirelessB.hostB.udp passedUpPk:vector(count) ETV
attr interpolationmode none
attr recordingmode vector(count)
attr source packetSentToUpper
attr title "packets passed up, count"
vector 81 WirelessB.hostB.udp droppedPkWrongPort:vector(count) ETV
attr interpolationmode none
attr recordingmode vector(count)
attr source packetDropReasonIsNoPortFound(packetDropped)
attr title "packets dropped (wrong port), count"
vector 82 WirelessB.hostB.udp droppedPkBadChecksum:vector(count) ETV
attr interpolationmode none
attr recordingmode vector(count)
attr source packetDropReasonIsIncorrectlyReceived(packetDropped)
attr title "packets dropped (checksum error), count"
vector 83 WirelessB.hostB.app[0] packetReceived:vector(packetBytes) ETV
attr interpolationmode none
attr recordingmode vector(packetBytes)
attr source packetReceived
attr title "packets received, packetBytes"
vector 84 WirelessB.hostB.app[0] throughput:vector ETV
attr recordingmode vector
attr source throughput(packetReceived)
attr title throughput
attr unit bps
vector 85 WirelessB.hostB.app[0] endToEndDelay:vector ETV
attr interpolationmode none
attr recordingmode vector
attr source dataAge(packetReceived)
attr title "end-to-end delay"
attr unit s
vector 86 WirelessB.hostB.app[0] rcvdPkSeqNo:vector ETV
attr interpolationmode none
attr recordingmode vector
attr source appPkSeqNo(packetReceived)
attr title "received packet sequence number"
vector 87 WirelessB.hostR1.energyStorage powerConsumption:vector ETV
attr interpolationmode sample-hold
attr recordingmode vector
attr source powerConsumptionChanged
attr title "Power consumption"
attr unit W
vector 88 WirelessB.hostR1.energyStorage powerGeneration:vector ETV
attr interpolationmode sample-hold
attr recordingmode vector
attr source powerGenerationChanged
attr title "Power generation"
attr unit W
vector 89 WirelessB.hostR1.energyStorage residualEnergyCapacity:vector ETV
attr interpolationmode linear
attr recordingmode vector
attr source residualEnergyCapacityChanged
attr title "Residual energy capacity"
attr unit J
vector 90 WirelessB.hostR1.lo[0].lo rcvdPkFromHl:vector(packetBytes) ETV
attr interpolationmode none
attr recordingmode vector(packetBytes)
attr source packetReceivedFromUpper
attr title "packets received from higher layer, packetBytes"
vector 91 WirelessB.hostR1.lo[0].lo passedUpPk:vector(packetBytes) ETV
attr interpolationmode none
attr recordingmode vector(packetBytes)
attr source packetSentToUpper
attr title "packets passed to higher layer, packetBytes"
vector 92 WirelessB.hostR1.lo[0] packetDropInterfaceDown:vector(packetBytes) ETV
attr interpolationmode none
attr recordingmode vector(packetBytes)
attr source packetDropReasonIsInterfaceDown(packetDropped)
attr title "packet drops: interface down, packetBytes"
vector 93 WirelessB.hostR1.lo[0] packetDropNoCarrier:vector(packetBytes) ETV
attr interpolationmode none
attr recordingmode vector(packetBytes)
attr source packetDropReasonIsNoCarrier(packetDropped)
attr title "packet drops: no carrier, packetBytes"
vector 94 WirelessB.hostR1.wlan[0].queue queueLength:vector ETV
attr autoWarmupFilter false
attr interpolationmode sample-hold
attr recordingmode vector
attr source "warmup(atomic(constant0(packetPushEnded) + count(packetPushStarted) - count(packetPulled) - count(packetRemoved) - count(packetDropped)))"
attr title "queue length"
attr unit pk
vector 95 WirelessB.hostR1.wlan[0].queue queueBitLength:vector ETV
attr autoWarmupFilter false
attr interpolationmode sample-hold
attr recordingmode vector
attr source "warmup(atomic(constant0(packetPushEnded) + sum(packetLength(packetPushStarted)) - sum(packetLength(packetPulled)) - sum(packetLength(packetRemoved)) - sum(packetLength(packetDropped))))"
attr title "queue bit length"
attr unit b
vector 96 WirelessB.hostR1.wlan[0].queue queueingTime:vector ETV
attr interpolationmode none
attr recordingmode vector
attr source queueingTime(packetPulled)
attr title "queueing times"
attr unit s
vector 97 WirelessB.hostR1.wlan[0].queue incomingPacketLengths:vector ETV
attr interpolationmode none
attr recordingmode vector
attr source packetLength(packetPushStarted)
attr title "incoming packet lengths"
attr unit b
vector 98 WirelessB.hostR1.wlan[0].queue incomingDataRate:vector ETV
attr interpolationmode linear
attr recordingmode vector
attr source throughput(packetPushStarted)
attr title "incoming datarate"
attr unit bps
vector 99 WirelessB.hostR1.wlan[0].queue outgoingPacketLengths:vector ETV
attr interpolationmode none
attr recordingmode vector
attr source packetLength(packetPulled)
attr title "outgoing packet lengths"
attr unit b
vector 100 WirelessB.hostR1.wlan[0].queue outgoingDataRate:vector ETV
attr interpolationmode linear
attr recordingmode vector
attr source throughput(packetPulled)
attr title "outgoing datarate"
attr unit bps
vector 101 WirelessB.hostR1.wlan[0].queue droppedPacketLengthsQueueOverflow:vector ETV
attr interpolationmode none
attr recordingmode vector
attr source packetLength(packetDropReasonIsQueueOverflow(packetDropped))
attr title "dropped packet lengths: queue overflow"
attr unit b
vector 102 WirelessB.hostR1.wlan[0].queue flowQueueingTime:vector ETV
attr interpolationmode none
attr recordingmode vector
attr source queueingTime(demuxFlow(packetPulled))
attr title "flow queueing times"
attr unit s
vector 103 WirelessB.hostR1.wlan[0].queue flowIncomingDataRate:vector ETV
attr interpolationmode linear
attr recordingmode vector
attr source throughput(flowPacketLength(demuxFlow(packetPushStarted)))
attr title "flow specific incoming data rate"
attr unit bps
vector 104 WirelessB.hostR1.wlan[0].queue flowOutgoingDataRate:vector ETV
attr interpolationmode linear
attr recordingmode vector
attr source throughput(flowPacketLength(demuxFlow(packetPulled)))
attr title "flow specific outgoing data rate"
attr unit bps
vector 105 WirelessB.hostR1.wlan[0].mac packetDropIncorrectlyReceived:vector(packetBytes) ETV
attr interpolationmode none
attr recordingmode vector(packetBytes)
attr source packetDropReasonIsIncorrectlyReceived(packetDropped)
attr title "packet drop: incorrectly received, packetBytes"
vector 106 WirelessB.hostR1.wlan[0].mac packetDropNotAddressedToUs:vector(packetBytes) ETV
attr interpolationmode none
attr recordingmode vector(packetBytes)
attr source packetDropReasonIsNotAddressedToUs(packetDropped)
attr title "packet drop: not addressed to us, packetBytes"
vector 107 WirelessB.hostR1.wlan[0].mac packetDropQueueOverflow:vector(packetBytes) ETV
attr interpolationmode none
attr recordingmode vector(packetBytes)
attr source packetDropReasonIsQueueOverflow(packetDropped)
attr title "packet drop: queue overflow, packetBytes"
vector 108 WirelessB.hostR1.wlan[0].mac packetDropRetryLimitReached:vector(packetBytes) ETV
attr interpolationmode none
attr recordingmode vector(packetBytes)
attr source packetDropReasonIsRetryLimitReached(packetDropped)
attr title "packet drop: retry limit reached, packetBytes"
vector 109 WirelessB.hostR1.wlan[0].radio.energyConsumer powerConsumption:vector ETV
attr interpolationmode sample-hold
attr recordingmode vector
attr source powerConsumptionChanged
attr title "Power consumption"
attr unit W
vector 110 WirelessB.hostR1.wlan[0].radio radioMode:vector ETV
attr interpolationmode sample-hold
attr recordingmode vector
attr source radioModeChanged
attr title "Radio mode"
vector 111 WirelessB.hostR1.wlan[0].radio receptionState:vector ETV
attr interpolationmode sample-hold
attr recordingmode vector
attr source receptionStateChanged
attr title "Radio reception state"
vector 112 WirelessB.hostR1.wlan[0].radio transmissionState:vector ETV
attr interpolationmode sample-hold
attr recordingmode vector
attr source transmissionStateChanged
attr title "Radio transmission state"
vector 113 WirelessB.hostR1.wlan[0] packetDropInterfaceDown:vector(packetBytes) ETV
attr interpolationmode none
attr recordingmode vector(packetBytes)
attr source packetDropReasonIsInterfaceDown(packetDropped)
attr title "packet drops: interface down, packetBytes"
vector 114 WirelessB.hostR1.wlan[0] packetDropNoCarrier:vector(packetBytes) ETV
attr interpolationmode none
attr recordingmode vector(packetBytes)
attr source packetDropReasonIsNoCarrier(packetDropped)
attr title "packet drops: no carrier, packetBytes"
vector 115 WirelessB.hostR1.ipv4.ip packetDropAddressResolutionFailed:vector(packetBytes) ETV
attr interpolationmode none
attr recordingmode vector(packetBytes)
attr source packetDropReasonIsAddressResolutionFailed(packetDropped)
attr title "packet drop: address resolution failed, packetBytes"
vector 116 WirelessB.hostR1.ipv4.ip packetDropHopLimitReached:vector(packetBytes) ETV
attr interpolationmode none
attr recordingmode vector(packetBytes)
attr source packetDropReasonIsHopLimitReached(packetDropped)
attr title "packet drop: hop limit reached, packetBytes"
vector 117 WirelessB.hostR1.ipv4.ip packetDropForwardingDisabled:vector(packetBytes) ETV
attr interpolationmode none
attr recordingmode vector(packetBytes)
attr source packetDropReasonIsForwardingDisabled(packetDropped)
attr title "packet drop: forwarding disabled, packetBytes"
vector 118 WirelessB.hostR1.ipv4.ip packetDropNoInterfaceFound:vector(packetBytes) ETV
attr interpolationmode none
attr recordingmode vector(packetBytes)
attr source packetDropReasonIsNoInterfaceFound(packetDropped)
attr title "packet drop: no interface found, packetBytes"
vector 119 WirelessB.hostR1.ipv4.ip packetDropNoRouteFound:vector(packetBytes) ETV
attr interpolationmode none
attr recordingmode vector(packetBytes)
attr source packetDropReasonIsNoRouteFound(packetDropped)
attr title "packet drop: no route found, packetBytes"
vector 120 WirelessB.hostR1.ipv4.ip packetDropUndefined:vector(packetBytes) ETV
attr interpolationmode none
attr recordingmode vector(packetBytes)
attr source packetDropReasonIsUndefined(packetDropped)
attr title "packet drop: undefined, packetBytes"
vector 121 WirelessB.hostR1.udp packetSent:vector(packetBytes) ETV
attr interpolationmode none
attr recordingmode vector(packetBytes)
attr source packetSent
attr title "packets sent, packetBytes"
vector 122 WirelessB.hostR1.udp packetReceived:vector(packetBytes) ETV
attr interpolationmode none
attr recordingmode vector(packetBytes)
attr source packetReceived
attr title "packets received, packetBytes"
vector 123 WirelessB.hostR1.udp passedUpPk:vector(count) ETV
attr interpolationmode none
attr recordingmode vector(count)
attr source packetSentToUpper
attr title "packets passed up, count"
vector 124 WirelessB.hostR1.udp droppedPkWrongPort:vector(count) ETV
attr interpolationmode none
attr recordingmode vector(count)
attr source packetDropReasonIsNoPortFound(packetDropped)
attr title "packets dropped (wrong port), count"
vector 125 WirelessB.hostR1.udp droppedPkBadChecksum:vector(count) ETV
attr interpolationmode none
attr recordingmode vector(count)
attr source packetDropReasonIsIncorrectlyReceived(packetDropped)
attr title "packets dropped (checksum error), count"
vector 126 WirelessB.hostR2.energyStorage powerConsumption:vector ETV
attr interpolationmode sample-hold
attr recordingmode vector
attr source powerConsumptionChanged
attr title "Power consumption"
attr unit W
vector 127 WirelessB.hostR2.energyStorage powerGeneration:vector ETV
attr interpolationmode sample-hold
attr recordingmode vector
attr source powerGenerationChanged
attr title "Power generation"
attr unit W
vector 128 WirelessB.hostR2.energyStorage residualEnergyCapacity:vector ETV
attr interpolationmode linear
attr recordingmode vector
attr source residualEnergyCapacityChanged
attr title "Residual energy capacity"
attr unit J
vector 129 WirelessB.hostR2.lo[0].lo rcvdPkFromHl:vector(packetBytes) ETV
attr interpolationmode none
attr recordingmode vector(packetBytes)
attr source packetReceivedFromUpper
attr title "packets received from higher layer, packetBytes"
vector 130 WirelessB.hostR2.lo[0].lo passedUpPk:vector(packetBytes) ETV
attr interpolationmode none
attr recordingmode vector(packetBytes)
attr source packetSentToUpper
attr title "packets passed to higher layer, packetBytes"
vector 131 WirelessB.hostR2.lo[0] packetDropInterfaceDown:vector(packetBytes) ETV
attr interpolationmode none
attr recordingmode vector(packetBytes)
attr source packetDropReasonIsInterfaceDown(packetDropped)
attr title "packet drops: interface down, packetBytes"
vector 132 WirelessB.hostR2.lo[0] packetDropNoCarrier:vector(packetBytes) ETV
attr interpolationmode none
attr recordingmode vector(packetBytes)
attr source packetDropReasonIsNoCarrier(packetDropped)
attr title "packet drops: no carrier, packetBytes"
vector 133 WirelessB.hostR2.wlan[0].queue queueLength:vector ETV
attr autoWarmupFilter false
attr interpolationmode sample-hold
attr recordingmode vector
attr source "warmup(atomic(constant0(packetPushEnded) + count(packetPushStarted) - count(packetPulled) - count(packetRemoved) - count(packetDropped)))"
attr title "queue length"
attr unit pk
vector 134 WirelessB.hostR2.wlan[0].queue queueBitLength:vector ETV
attr autoWarmupFilter false
attr interpolationmode sample-hold
attr recordingmode vector
attr source "warmup(atomic(constant0(packetPushEnded) + sum(packetLength(packetPushStarted)) - sum(packetLength(packetPulled)) - sum(packetLength(packetRemoved)) - sum(packetLength(packetDropped))))"
attr title "queue bit length"
attr unit b
vector 135 WirelessB.hostR2.wlan[0].queue queueingTime:vector ETV
attr interpolationmode none
attr recordingmode vector
attr source queueingTime(packetPulled)
attr title "queueing times"
attr unit s
vector 136 WirelessB.hostR2.wlan[0].queue incomingPacketLengths:vector ETV
attr interpolationmode none
attr recordingmode vector
attr source packetLength(packetPushStarted)
attr title "incoming packet lengths"
attr unit b
vector 137 WirelessB.hostR2.wlan[0].queue incomingDataRate:vector ETV
attr interpolationmode linear
attr recordingmode vector
attr source throughput(packetPushStarted)
attr title "incoming datarate"
attr unit bps
vector 138 WirelessB.hostR2.wlan[0].queue outgoingPacketLengths:vector ETV
attr interpolationmode none
attr recordingmode vector
attr source packetLength(packetPulled)
attr title "outgoing packet lengths"
attr unit b
vector 139 WirelessB.hostR2.wlan[0].queue outgoingDataRate:vector ETV
attr interpolationmode linear
attr recordingmode vector
attr source throughput(packetPulled)
attr title "outgoing datarate"
attr unit bps
vector 140 WirelessB.hostR2.wlan[0].queue droppedPacketLengthsQueueOverflow:vector ETV
attr interpolationmode none
attr recordingmode vector
attr source packetLength(packetDropReasonIsQueueOverflow(packetDropped))
attr title "dropped packet lengths: queue overflow"
attr unit b
vector 141 WirelessB.hostR2.wlan[0].queue flowQueueingTime:vector ETV
attr interpolationmode none
attr recordingmode vector
attr source queueingTime(demuxFlow(packetPulled))
attr title "flow queueing times"
attr unit s
vector 142 WirelessB.hostR2.wlan[0].queue flowIncomingDataRate:vector ETV
attr interpolationmode linear
attr recordingmode vector
attr source throughput(flowPacketLength(demuxFlow(packetPushStarted)))
attr title "flow specific incoming data rate"
attr unit bps
vector 143 WirelessB.hostR2.wlan[0].queue flowOutgoingDataRate:vector ETV
attr interpolationmode linear
attr recordingmode vector
attr source throughput(flowPacketLength(demuxFlow(packetPulled)))
attr title "flow specific outgoing data rate"
attr unit bps
vector 144 WirelessB.hostR2.wlan[0].mac packetDropIncorrectlyReceived:vector(packetBytes) ETV
attr interpolationmode none
attr recordingmode vector(packetBytes)
attr source packetDropReasonIsIncorrectlyReceived(packetDropped)
attr title "packet drop: incorrectly received, packetBytes"
vector 145 WirelessB.hostR2.wlan[0].mac packetDropNotAddressedToUs:vector(packetBytes) ETV
attr interpolationmode none
attr recordingmode vector(packetBytes)
attr source packetDropReasonIsNotAddressedToUs(packetDropped)
attr title "packet drop: not addressed to us, packetBytes"
vector 146 WirelessB.hostR2.wlan[0].mac packetDropQueueOverflow:vector(packetBytes) ETV
attr interpolationmode none
attr recordingmode vector(packetBytes)
attr source packetDropReasonIsQueueOverflow(packetDropped)
attr title "packet drop: queue overflow, packetBytes"
vector 147 WirelessB.hostR2.wlan[0].mac packetDropRetryLimitReached:vector(packetBytes) ETV
attr interpolationmode none
attr recordingmode vector(packetBytes)
attr source packetDropReasonIsRetryLimitReached(packetDropped)
attr title "packet drop: retry limit reached, packetBytes"
vector 148 WirelessB.hostR2.wlan[0].radio.energyConsumer powerConsumption:vector ETV
attr interpolationmode sample-hold
attr recordingmode vector
attr source powerConsumptionChanged
attr title "Power consumption"
attr unit W
vector 149 WirelessB.hostR2.wlan[0].radio radioMode:vector ETV
attr interpolationmode sample-hold
attr recordingmode vector
attr source radioModeChanged
attr title "Radio mode"
vector 150 WirelessB.hostR2.wlan[0].radio receptionState:vector ETV
attr interpolationmode sample-hold
attr recordingmode vector
attr source receptionStateChanged
attr title "Radio reception state"
vector 151 WirelessB.hostR2.wlan[0].radio transmissionState:vector ETV
attr interpolationmode sample-hold
attr recordingmode vector
attr source transmissionStateChanged
attr title "Radio transmission state"
vector 152 WirelessB.hostR2.wlan[0] packetDropInterfaceDown:vector(packetBytes) ETV
attr interpolationmode none
attr recordingmode vector(packetBytes)
attr source packetDropReasonIsInterfaceDown(packetDropped)
attr title "packet drops: interface down, packetBytes"
vector 153 WirelessB.hostR2.wlan[0] packetDropNoCarrier:vector(packetBytes) ETV
attr interpolationmode none
attr recordingmode vector(packetBytes)
attr source packetDropReasonIsNoCarrier(packetDropped)
attr title "packet drops: no carrier, packetBytes"
vector 154 WirelessB.hostR2.ipv4.ip packetDropAddressResolutionFailed:vector(packetBytes) ETV
attr interpolationmode none
attr recordingmode vector(packetBytes)
attr source packetDropReasonIsAddressResolutionFailed(packetDropped)
attr title "packet drop: address resolution failed, packetBytes"
vector 155 WirelessB.hostR2.ipv4.ip packetDropHopLimitReached:vector(packetBytes) ETV
attr interpolationmode none
attr recordingmode vector(packetBytes)
attr source packetDropReasonIsHopLimitReached(packetDropped)
attr title "packet drop: hop limit reached, packetBytes"
vector 156 WirelessB.hostR2.ipv4.ip packetDropForwardingDisabled:vector(packetBytes) ETV
attr interpolationmode none
attr recordingmode vector(packetBytes)
attr source packetDropReasonIsForwardingDisabled(packetDropped)
attr title "packet drop: forwarding disabled, packetBytes"
vector 157 WirelessB.hostR2.ipv4.ip packetDropNoInterfaceFound:vector(packetBytes) ETV
attr interpolationmode none
attr recordingmode vector(packetBytes)
attr source packetDropReasonIsNoInterfaceFound(packetDropped)
attr title "packet drop: no interface found, packetBytes"
vector 158 WirelessB.hostR2.ipv4.ip packetDropNoRouteFound:vector(packetBytes) ETV
attr interpolationmode none
attr recordingmode vector(packetBytes)
attr source packetDropReasonIsNoRouteFound(packetDropped)
attr title "packet drop: no route found, packetBytes"
vector 159 WirelessB.hostR2.ipv4.ip packetDropUndefined:vector(packetBytes) ETV
attr interpolationmode none
attr recordingmode vector(packetBytes)
attr source packetDropReasonIsUndefined(packetDropped)
attr title "packet drop: undefined, packetBytes"
vector 160 WirelessB.hostR2.udp packetSent:vector(packetBytes) ETV
attr interpolationmode none
attr recordingmode vector(packetBytes)
attr source packetSent
attr title "packets sent, packetBytes"
vector 161 WirelessB.hostR2.udp packetReceived:vector(packetBytes) ETV
attr interpolationmode none
attr recordingmode vector(packetBytes)
attr source packetReceived
attr title "packets received, packetBytes"
vector 162 WirelessB.hostR2.udp passedUpPk:vector(count) ETV
attr interpolationmode none
attr recordingmode vector(count)
attr source packetSentToUpper
attr title "packets passed up, count"
vector 163 WirelessB.hostR2.udp droppedPkWrongPort:vector(count) ETV
attr interpolationmode none
attr recordingmode vector(count)
attr source packetDropReasonIsNoPortFound(packetDropped)
attr title "packets dropped (wrong port), count"
vector 164 WirelessB.hostR2.udp droppedPkBadChecksum:vector(count) ETV
attr interpolationmode none
attr recordingmode vector(count)
attr source packetDropReasonIsIncorrectlyReceived(packetDropped)
attr title "packets dropped (checksum error), count"
vector 165 WirelessB.hostR3.energyStorage powerConsumption:vector ETV
attr interpolationmode sample-hold
attr recordingmode vector
attr source powerConsumptionChanged
attr title "Power consumption"
attr unit W
vector 166 WirelessB.hostR3.energyStorage powerGeneration:vector ETV
attr interpolationmode sample-hold
attr recordingmode vector
attr source powerGenerationChanged
attr title "Power generation"
attr unit W
vector 167 WirelessB.hostR3.energyStorage residualEnergyCapacity:vector ETV
attr interpolationmode linear
attr recordingmode vector
attr source residualEnergyCapacityChanged
attr title "Residual energy capacity"
attr unit J
vector 168 WirelessB.hostR3.lo[0].lo rcvdPkFromHl:vector(packetBytes) ETV
attr interpolationmode none
attr recordingmode vector(packetBytes)
attr source packetReceivedFromUpper
attr title "packets received from higher layer, packetBytes"
vector 169 WirelessB.hostR3.lo[0].lo passedUpPk:vector(packetBytes) ETV
attr interpolationmode none
attr recordingmode vector(packetBytes)
attr source packetSentToUpper
attr title "packets passed to higher layer, packetBytes"
vector 170 WirelessB.hostR3.lo[0] packetDropInterfaceDown:vector(packetBytes) ETV
attr interpolationmode none
attr recordingmode vector(packetBytes)
attr source packetDropReasonIsInterfaceDown(packetDropped)
attr title "packet drops: interface down, packetBytes"
vector 171 WirelessB.hostR3.lo[0] packetDropNoCarrier:vector(packetBytes) ETV
attr interpolationmode none
attr recordingmode vector(packetBytes)
attr source packetDropReasonIsNoCarrier(packetDropped)
attr title "packet drops: no carrier, packetBytes"
vector 172 WirelessB.hostR3.wlan[0].queue queueLength:vector ETV
attr autoWarmupFilter false
attr interpolationmode sample-hold
attr recordingmode vector
attr source "warmup(atomic(constant0(packetPushEnded) + count(packetPushStarted) - count(packetPulled) - count(packetRemoved) - count(packetDropped)))"
attr title "queue length"
attr unit pk
vector 173 WirelessB.hostR3.wlan[0].queue queueBitLength:vector ETV
attr autoWarmupFilter false
attr interpolationmode sample-hold
attr recordingmode vector
attr source "warmup(atomic(constant0(packetPushEnded) + sum(packetLength(packetPushStarted)) - sum(packetLength(packetPulled)) - sum(packetLength(packetRemoved)) - sum(packetLength(packetDropped))))"
attr title "queue bit length"
attr unit b
vector 174 WirelessB.hostR3.wlan[0].queue queueingTime:vector ETV
attr interpolationmode none
attr recordingmode vector
attr source queueingTime(packetPulled)
attr title "queueing times"
attr unit s
vector 175 WirelessB.hostR3.wlan[0].queue incomingPacketLengths:vector ETV
attr interpolationmode none
attr recordingmode vector
attr source packetLength(packetPushStarted)
attr title "incoming packet lengths"
attr unit b
vector 176 WirelessB.hostR3.wlan[0].queue incomingDataRate:vector ETV
attr interpolationmode linear
attr recordingmode vector
attr source throughput(packetPushStarted)
attr title "incoming datarate"
attr unit bps
vector 177 WirelessB.hostR3.wlan[0].queue outgoingPacketLengths:vector ETV
attr interpolationmode none
attr recordingmode vector
attr source packetLength(packetPulled)
attr title "outgoing packet lengths"
attr unit b
vector 178 WirelessB.hostR3.wlan[0].queue outgoingDataRate:vector ETV
attr interpolationmode linear
attr recordingmode vector
attr source throughput(packetPulled)
attr title "outgoing datarate"
attr unit bps
vector 179 WirelessB.hostR3.wlan[0].queue droppedPacketLengthsQueueOverflow:vector ETV
attr interpolationmode none
attr recordingmode vector
attr source packetLength(packetDropReasonIsQueueOverflow(packetDropped))
attr title "dropped packet lengths: queue overflow"
attr unit b
vector 180 WirelessB.hostR3.wlan[0].queue flowQueueingTime:vector ETV
attr interpolationmode none
attr recordingmode vector
attr source queueingTime(demuxFlow(packetPulled))
attr title "flow queueing times"
attr unit s
vector 181 WirelessB.hostR3.wlan[0].queue flowIncomingDataRate:vector ETV
attr interpolationmode linear
attr recordingmode vector
attr source throughput(flowPacketLength(demuxFlow(packetPushStarted)))
attr title "flow specific incoming data rate"
attr unit bps
vector 182 WirelessB.hostR3.wlan[0].queue flowOutgoingDataRate:vector ETV
attr interpolationmode linear
attr recordingmode vector
attr source throughput(flowPacketLength(demuxFlow(packetPulled)))
attr title "flow specific outgoing data rate"
attr unit bps
vector 183 WirelessB.hostR3.wlan[0].mac packetDropIncorrectlyReceived:vector(packetBytes) ETV
attr interpolationmode none
attr recordingmode vector(packetBytes)
attr source packetDropReasonIsIncorrectlyReceived(packetDropped)
attr title "packet drop: incorrectly received, packetBytes"
vector 184 WirelessB.hostR3.wlan[0].mac packetDropNotAddressedToUs:vector(packetBytes) ETV
attr interpolationmode none
attr recordingmode vector(packetBytes)
attr source packetDropReasonIsNotAddressedToUs(packetDropped)
attr title "packet drop: not addressed to us, packetBytes"
vector 185 WirelessB.hostR3.wlan[0].mac packetDropQueueOverflow:vector(packetBytes) ETV
attr interpolationmode none
attr recordingmode vector(packetBytes)
attr source packetDropReasonIsQueueOverflow(packetDropped)
attr title "packet drop: queue overflow, packetBytes"
vector 186 WirelessB.hostR3.wlan[0].mac packetDropRetryLimitReached:vector(packetBytes) ETV
attr interpolationmode none
attr recordingmode vector(packetBytes)
attr source packetDropReasonIsRetryLimitReached(packetDropped)
attr title "packet drop: retry limit reached, packetBytes"
vector 187 WirelessB.hostR3.wlan[0].radio.energyConsumer powerConsumption:vector ETV
attr interpolationmode sample-hold
attr recordingmode vector
attr source powerConsumptionChanged
attr title "Power consumption"
attr unit W
vector 188 WirelessB.hostR3.wlan[0].radio radioMode:vector ETV
attr interpolationmode sample-hold
attr recordingmode vector
attr source radioModeChanged
attr title "Radio mode"
vector 189 WirelessB.hostR3.wlan[0].radio receptionState:vector ETV
attr interpolationmode sample-hold
attr recordingmode vector
attr source receptionStateChanged
attr title "Radio reception state"
vector 190 WirelessB.hostR3.wlan[0].radio transmissionState:vector ETV
attr interpolationmode sample-hold
attr recordingmode vector
attr source transmissionStateChanged
attr title "Radio transmission state"
vector 191 WirelessB.hostR3.wlan[0] packetDropInterfaceDown:vector(packetBytes) ETV
attr interpolationmode none
attr recordingmode vector(packetBytes)
attr source packetDropReasonIsInterfaceDown(packetDropped)
attr title "packet drops: interface down, packetBytes"
vector 192 WirelessB.hostR3.wlan[0] packetDropNoCarrier:vector(packetBytes) ETV
attr interpolationmode none
attr recordingmode vector(packetBytes)
attr source packetDropReasonIsNoCarrier(packetDropped)
attr title "packet drops: no carrier, packetBytes"
vector 193 WirelessB.hostR3.ipv4.ip packetDropAddressResolutionFailed:vector(packetBytes) ETV
attr interpolationmode none
attr recordingmode vector(packetBytes)
attr source packetDropReasonIsAddressResolutionFailed(packetDropped)
attr title "packet drop: address resolution failed, packetBytes"
vector 194 WirelessB.hostR3.ipv4.ip packetDropHopLimitReached:vector(packetBytes) ETV
attr interpolationmode none
attr recordingmode vector(packetBytes)
attr source packetDropReasonIsHopLimitReached(packetDropped)
attr title "packet drop: hop limit reached, packetBytes"
vector 195 WirelessB.hostR3.ipv4.ip packetDropForwardingDisabled:vector(packetBytes) ETV
attr interpolationmode none
attr recordingmode vector(packetBytes)
attr source packetDropReasonIsForwardingDisabled(packetDropped)
attr title "packet drop: forwarding disabled, packetBytes"
vector 196 WirelessB.hostR3.ipv4.ip packetDropNoInterfaceFound:vector(packetBytes) ETV
attr interpolationmode none
attr recordingmode vector(packetBytes)
attr source packetDropReasonIsNoInterfaceFound(packetDropped)
attr title "packet drop: no interface found, packetBytes"
vector 197 WirelessB.hostR3.ipv4.ip packetDropNoRouteFound:vector(packetBytes) ETV
attr interpolationmode none
attr recordingmode vector(packetBytes)
attr source packetDropReasonIsNoRouteFound(packetDropped)
attr title "packet drop: no route found, packetBytes"
vector 198 WirelessB.hostR3.ipv4.ip packetDropUndefined:vector(packetBytes) ETV
attr interpolationmode none
attr recordingmode vector(packetBytes)
attr source packetDropReasonIsUndefined(packetDropped)
attr title "packet drop: undefined, packetBytes"
vector 199 WirelessB.hostR3.udp packetSent:vector(packetBytes) ETV
attr interpolationmode none
attr recordingmode vector(packetBytes)
attr source packetSent
attr title "packets sent, packetBytes"
vector 200 WirelessB.hostR3.udp packetReceived:vector(packetBytes) ETV
attr interpolationmode none
attr recordingmode vector(packetBytes)
attr source packetReceived
attr title "packets received, packetBytes"
vector 201 WirelessB.hostR3.udp passedUpPk:vector(count) ETV
attr interpolationmode none
attr recordingmode vector(count)
attr source packetSentToUpper
attr title "packets passed up, count"
vector 202 WirelessB.hostR3.udp droppedPkWrongPort:vector(count) ETV
attr interpolationmode none
attr recordingmode vector(count)
attr source packetDropReasonIsNoPortFound(packetDropped)
attr title "packets dropped (wrong port), count"
vector 203 WirelessB.hostR3.udp droppedPkBadChecksum:vector(count) ETV
attr interpolationmode none
attr recordingmode vector(count)
attr source packetDropReasonIsIncorrectlyReceived(packetDropped)
attr title "packets dropped (checksum error), count"
vector 204 WirelessB.hostR4.energyStorage powerConsumption:vector ETV
attr interpolationmode sample-hold
attr recordingmode vector
attr source powerConsumptionChanged
attr title "Power consumption"
attr unit W
vector 205 WirelessB.hostR4.energyStorage powerGeneration:vector ETV
attr interpolationmode sample-hold
attr recordingmode vector
attr source powerGenerationChanged
attr title "Power generation"
attr unit W
vector 206 WirelessB.hostR4.energyStorage residualEnergyCapacity:vector ETV
attr interpolationmode linear
attr recordingmode vector
attr source residualEnergyCapacityChanged
attr title "Residual energy capacity"
attr unit J
vector 207 WirelessB.hostR4.lo[0].lo rcvdPkFromHl:vector(packetBytes) ETV
attr interpolationmode none
attr recordingmode vector(packetBytes)
attr source packetReceivedFromUpper
attr title "packets received from higher layer, packetBytes"
vector 208 WirelessB.hostR4.lo[0].lo passedUpPk:vector(packetBytes) ETV
attr interpolationmode none
attr recordingmode vector(packetBytes)
attr source packetSentToUpper
attr title "packets passed to higher layer, packetBytes"
vector 209 WirelessB.hostR4.lo[0] packetDropInterfaceDown:vector(packetBytes) ETV
attr interpolationmode none
attr recordingmode vector(packetBytes)
attr source packetDropReasonIsInterfaceDown(packetDropped)
attr title "packet drops: interface down, packetBytes"
vector 210 WirelessB.hostR4.lo[0] packetDropNoCarrier:vector(packetBytes) ETV
attr interpolationmode none
attr recordingmode vector(packetBytes)
attr source packetDropReasonIsNoCarrier(packetDropped)
attr title "packet drops: no carrier, packetBytes"
vector 211 WirelessB.hostR4.wlan[0].queue queueLength:vector ETV
attr autoWarmupFilter false
attr interpolationmode sample-hold
attr recordingmode vector
attr source "warmup(atomic(constant0(packetPushEnded) + count(packetPushStarted) - count(packetPulled) - count(packetRemoved) - count(packetDropped)))"
attr title "queue length"
attr unit pk
vector 212 WirelessB.hostR4.wlan[0].queue queueBitLength:vector ETV
attr autoWarmupFilter false
attr interpolationmode sample-hold
attr recordingmode vector
attr source "warmup(atomic(constant0(packetPushEnded) + sum(packetLength(packetPushStarted)) - sum(packetLength(packetPulled)) - sum(packetLength(packetRemoved)) - sum(packetLength(packetDropped))))"
attr title "queue bit length"
attr unit b
vector 213 WirelessB.hostR4.wlan[0].queue queueingTime:vector ETV
attr interpolationmode none
attr recordingmode vector
attr source queueingTime(packetPulled)
attr title "queueing times"
attr unit s
vector 214 WirelessB.hostR4.wlan[0].queue incomingPacketLengths:vector ETV
attr interpolationmode none
attr recordingmode vector
attr source packetLength(packetPushStarted)
attr title "incoming packet lengths"
attr unit b
vector 215 WirelessB.hostR4.wlan[0].queue incomingDataRate:vector ETV
attr interpolationmode linear
attr recordingmode vector
attr source throughput(packetPushStarted)
attr title "incoming datarate"
attr unit bps
vector 216 WirelessB.hostR4.wlan[0].queue outgoingPacketLengths:vector ETV
attr interpolationmode none
attr recordingmode vector
attr source packetLength(packetPulled)
attr title "outgoing packet lengths"
attr unit b
vector 217 WirelessB.hostR4.wlan[0].queue outgoingDataRate:vector ETV
attr interpolationmode linear
attr recordingmode vector
attr source throughput(packetPulled)
attr title "outgoing datarate"
attr unit bps
vector 218 WirelessB.hostR4.wlan[0].queue droppedPacketLengthsQueueOverflow:vector ETV
attr interpolationmode none
attr recordingmode vector
attr source packetLength(packetDropReasonIsQueueOverflow(packetDropped))
attr title "dropped packet lengths: queue overflow"
attr unit b
vector 219 WirelessB.hostR4.wlan[0].queue flowQueueingTime:vector ETV
attr interpolationmode none
attr recordingmode vector
attr source queueingTime(demuxFlow(packetPulled))
attr title "flow queueing times"
attr unit s
vector 220 WirelessB.hostR4.wlan[0].queue flowIncomingDataRate:vector ETV
attr interpolationmode linear
attr recordingmode vector
attr source throughput(flowPacketLength(demuxFlow(packetPushStarted)))
attr title "flow specific incoming data rate"
attr unit bps
vector 221 WirelessB.hostR4.wlan[0].queue flowOutgoingDataRate:vector ETV
attr interpolationmode linear
attr recordingmode vector
attr source throughput(flowPacketLength(demuxFlow(packetPulled)))
attr title "flow specific outgoing data rate"
attr unit bps
vector 222 WirelessB.hostR4.wlan[0].mac packetDropIncorrectlyReceived:vector(packetBytes) ETV
attr interpolationmode none
attr recordingmode vector(packetBytes)
attr source packetDropReasonIsIncorrectlyReceived(packetDropped)
attr title "packet drop: incorrectly received, packetBytes"
vector 223 WirelessB.hostR4.wlan[0].mac packetDropNotAddressedToUs:vector(packetBytes) ETV
attr interpolationmode none
attr recordingmode vector(packetBytes)
attr source packetDropReasonIsNotAddressedToUs(packetDropped)
attr title "packet drop: not addressed to us, packetBytes"
vector 224 WirelessB.hostR4.wlan[0].mac packetDropQueueOverflow:vector(packetBytes) ETV
attr interpolationmode none
attr recordingmode vector(packetBytes)
attr source packetDropReasonIsQueueOverflow(packetDropped)
attr title "packet drop: queue overflow, packetBytes"
vector 225 WirelessB.hostR4.wlan[0].mac packetDropRetryLimitReached:vector(packetBytes) ETV
attr interpolationmode none
attr recordingmode vector(packetBytes)
attr source packetDropReasonIsRetryLimitReached(packetDropped)
attr title "packet drop: retry limit reached, packetBytes"
vector 226 WirelessB.hostR4.wlan[0].radio.energyConsumer powerConsumption:vector ETV
attr interpolationmode sample-hold
attr recordingmode vector
attr source powerConsumptionChanged
attr title "Power consumption"
attr unit W
vector 227 WirelessB.hostR4.wlan[0].radio radioMode:vector ETV
attr interpolationmode sample-hold
attr recordingmode vector
attr source radioModeChanged
attr title "Radio mode"
vector 228 WirelessB.hostR4.wlan[0].radio receptionState:vector ETV
attr interpolationmode sample-hold
attr recordingmode vector
attr source receptionStateChanged
attr title "Radio reception state"
vector 229 WirelessB.hostR4.wlan[0].radio transmissionState:vector ETV
attr interpolationmode sample-hold
attr recordingmode vector
attr source transmissionStateChanged
attr title "Radio transmission state"
vector 230 WirelessB.hostR4.wlan[0] packetDropInterfaceDown:vector(packetBytes) ETV
attr interpolationmode none
attr recordingmode vector(packetBytes)
attr source packetDropReasonIsInterfaceDown(packetDropped)
attr title "packet drops: interface down, packetBytes"
vector 231 WirelessB.hostR4.wlan[0] packetDropNoCarrier:vector(packetBytes) ETV
attr interpolationmode none
attr recordingmode vector(packetBytes)
attr source packetDropReasonIsNoCarrier(packetDropped)
attr title "packet drops: no carrier, packetBytes"
vector 232 WirelessB.hostR4.ipv4.ip packetDropAddressResolutionFailed:vector(packetBytes) ETV
attr interpolationmode none
attr recordingmode vector(packetBytes)
attr source packetDropReasonIsAddressResolutionFailed(packetDropped)
attr title "packet drop: address resolution failed, packetBytes"
vector 233 WirelessB.hostR4.ipv4.ip packetDropHopLimitReached:vector(packetBytes) ETV
attr interpolationmode none
attr recordingmode vector(packetBytes)
attr source packetDropReasonIsHopLimitReached(packetDropped)
attr title "packet drop: hop limit reached, packetBytes"
vector 234 WirelessB.hostR4.ipv4.ip packetDropForwardingDisabled:vector(packetBytes) ETV
attr interpolationmode none
attr recordingmode vector(packetBytes)
attr source packetDropReasonIsForwardingDisabled(packetDropped)
attr title "packet drop: forwarding disabled, packetBytes"
vector 235 WirelessB.hostR4.ipv4.ip packetDropNoInterfaceFound:vector(packetBytes) ETV
attr interpolationmode none
attr recordingmode vector(packetBytes)
attr source packetDropReasonIsNoInterfaceFound(packetDropped)
attr title "packet drop: no interface found, packetBytes"
vector 236 WirelessB.hostR4.ipv4.ip packetDropNoRouteFound:vector(packetBytes) ETV
attr interpolationmode none
attr recordingmode vector(packetBytes)
attr source packetDropReasonIsNoRouteFound(packetDropped)
attr title "packet drop: no route found, packetBytes"
vector 237 WirelessB.hostR4.ipv4.ip packetDropUndefined:vector(packetBytes) ETV
attr interpolationmode none
attr recordingmode vector(packetBytes)
attr source packetDropReasonIsUndefined(packetDropped)
attr title "packet drop: undefined, packetBytes"
vector 238 WirelessB.hostR4.udp packetSent:vector(packetBytes) ETV
attr interpolationmode none
attr recordingmode vector(packetBytes)
attr source packetSent
attr title "packets sent, packetBytes"
vector 239 WirelessB.hostR4.udp packetReceived:vector(packetBytes) ETV
attr interpolationmode none
attr recordingmode vector(packetBytes)
attr source packetReceived
attr title "packets received, packetBytes"
vector 240 WirelessB.hostR4.udp passedUpPk:vector(count) ETV
attr interpolationmode none
attr recordingmode vector(count)
attr source packetSentToUpper
attr title "packets passed up, count"
vector 241 WirelessB.hostR4.udp droppedPkWrongPort:vector(count) ETV
attr interpolationmode none
attr recordingmode vector(count)
attr source packetDropReasonIsNoPortFound(packetDropped)
attr title "packets dropped (wrong port), count"
vector 242 WirelessB.hostR4.udp droppedPkBadChecksum:vector(count) ETV
attr interpolationmode none
attr recordingmode vector(count)
attr source packetDropReasonIsIncorrectlyReceived(packetDropped)
attr title "packets dropped (checksum error), count"
vector 243 WirelessB.hostR5.energyStorage powerConsumption:vector ETV
attr interpolationmode sample-hold
attr recordingmode vector
attr source powerConsumptionChanged
attr title "Power consumption"
attr unit W
vector 244 WirelessB.hostR5.energyStorage powerGeneration:vector ETV
attr interpolationmode sample-hold
attr recordingmode vector
attr source powerGenerationChanged
attr title "Power generation"
attr unit W
vector 245 WirelessB.hostR5.energyStorage residualEnergyCapacity:vector ETV
attr interpolationmode linear
attr recordingmode vector
attr source residualEnergyCapacityChanged
attr title "Residual energy capacity"
attr unit J
vector 246 WirelessB.hostR5.lo[0].lo rcvdPkFromHl:vector(packetBytes) ETV
attr interpolationmode none
attr recordingmode vector(packetBytes)
attr source packetReceivedFromUpper
attr title "packets received from higher layer, packetBytes"
vector 247 WirelessB.hostR5.lo[0].lo passedUpPk:vector(packetBytes) ETV
attr interpolationmode none
attr recordingmode vector(packetBytes)
attr source packetSentToUpper
attr title "packets passed to higher layer, packetBytes"
vector 248 WirelessB.hostR5.lo[0] packetDropInterfaceDown:vector(packetBytes) ETV
attr interpolationmode none
attr recordingmode vector(packetBytes)
attr source packetDropReasonIsInterfaceDown(packetDropped)
attr title "packet drops: interface down, packetBytes"
vector 249 WirelessB.hostR5.lo[0] packetDropNoCarrier:vector(packetBytes) ETV
attr interpolationmode none
attr recordingmode vector(packetBytes)
attr source packetDropReasonIsNoCarrier(packetDropped)
attr title "packet drops: no carrier, packetBytes"
vector 250 WirelessB.hostR5.wlan[0].queue queueLength:vector ETV
attr autoWarmupFilter false
attr interpolationmode sample-hold
attr recordingmode vector
attr source "warmup(atomic(constant0(packetPushEnded) + count(packetPushStarted) - count(packetPulled) - count(packetRemoved) - count(packetDropped)))"
attr title "queue length"
attr unit pk
vector 251 WirelessB.hostR5.wlan[0].queue queueBitLength:vector ETV
attr autoWarmupFilter false
attr interpolationmode sample-hold
attr recordingmode vector
attr source "warmup(atomic(constant0(packetPushEnded) + sum(packetLength(packetPushStarted)) - sum(packetLength(packetPulled)) - sum(packetLength(packetRemoved)) - sum(packetLength(packetDropped))))"
attr title "queue bit length"
attr unit b
vector 252 WirelessB.hostR5.wlan[0].queue queueingTime:vector ETV
attr interpolationmode none
attr recordingmode vector
attr source queueingTime(packetPulled)
attr title "queueing times"
attr unit s
vector 253 WirelessB.hostR5.wlan[0].queue incomingPacketLengths:vector ETV
attr interpolationmode none
attr recordingmode vector
attr source packetLength(packetPushStarted)
attr title "incoming packet lengths"
attr unit b
vector 254 WirelessB.hostR5.wlan[0].queue incomingDataRate:vector ETV
attr interpolationmode linear
attr recordingmode vector
attr source throughput(packetPushStarted)
attr title "incoming datarate"
attr unit bps
vector 255 WirelessB.hostR5.wlan[0].queue outgoingPacketLengths:vector ETV
attr interpolationmode none
attr recordingmode vector
attr source packetLength(packetPulled)
attr title "outgoing packet lengths"
attr unit b
vector 256 WirelessB.hostR5.wlan[0].queue outgoingDataRate:vector ETV
attr interpolationmode linear
attr recordingmode vector
attr source throughput(packetPulled)
attr title "outgoing datarate"
attr unit bps
vector 257 WirelessB.hostR5.wlan[0].queue droppedPacketLengthsQueueOverflow:vector ETV
attr interpolationmode none
attr recordingmode vector
attr source packetLength(packetDropReasonIsQueueOverflow(packetDropped))
attr title "dropped packet lengths: queue overflow"
attr unit b
vector 258 WirelessB.hostR5.wlan[0].queue flowQueueingTime:vector ETV
attr interpolationmode none
attr recordingmode vector
attr source queueingTime(demuxFlow(packetPulled))
attr title "flow queueing times"
attr unit s
vector 259 WirelessB.hostR5.wlan[0].queue flowIncomingDataRate:vector ETV
attr interpolationmode linear
attr recordingmode vector
attr source throughput(flowPacketLength(demuxFlow(packetPushStarted)))
attr title "flow specific incoming data rate"
attr unit bps
vector 260 WirelessB.hostR5.wlan[0].queue flowOutgoingDataRate:vector ETV
attr interpolationmode linear
attr recordingmode vector
attr source throughput(flowPacketLength(demuxFlow(packetPulled)))
attr title "flow specific outgoing data rate"
attr unit bps
vector 261 WirelessB.hostR5.wlan[0].mac packetDropIncorrectlyReceived:vector(packetBytes) ETV
attr interpolationmode none
attr recordingmode vector(packetBytes)
attr source packetDropReasonIsIncorrectlyReceived(packetDropped)
attr title "packet drop: incorrectly received, packetBytes"
vector 262 WirelessB.hostR5.wlan[0].mac packetDropNotAddressedToUs:vector(packetBytes) ETV
attr interpolationmode none
attr recordingmode vector(packetBytes)
attr source packetDropReasonIsNotAddressedToUs(packetDropped)
attr title "packet drop: not addressed to us, packetBytes"
vector 263 WirelessB.hostR5.wlan[0].mac packetDropQueueOverflow:vector(packetBytes) ETV
attr interpolationmode none
attr recordingmode vector(packetBytes)
attr source packetDropReasonIsQueueOverflow(packetDropped)
attr title "packet drop: queue overflow, packetBytes"
vector 264 WirelessB.hostR5.wlan[0].mac packetDropRetryLimitReached:vector(packetBytes) ETV
attr interpolationmode none
attr recordingmode vector(packetBytes)
attr source packetDropReasonIsRetryLimitReached(packetDropped)
attr title "packet drop: retry limit reached, packetBytes"
vector 265 WirelessB.hostR5.wlan[0].radio.energyConsumer powerConsumption:vector ETV
attr interpolationmode sample-hold
attr recordingmode vector
attr source powerConsumptionChanged
attr title "Power consumption"
attr unit W
vector 266 WirelessB.hostR5.wlan[0].radio radioMode:vector ETV
attr interpolationmode sample-hold
attr recordingmode vector
attr source radioModeChanged
attr title "Radio mode"
vector 267 WirelessB.hostR5.wlan[0].radio receptionState:vector ETV
attr interpolationmode sample-hold
attr recordingmode vector
attr source receptionStateChanged
attr title "Radio reception state"
vector 268 WirelessB.hostR5.wlan[0].radio transmissionState:vector ETV
attr interpolationmode sample-hold
attr recordingmode vector
attr source transmissionStateChanged
attr title "Radio transmission state"
vector 269 WirelessB.hostR5.wlan[0] packetDropInterfaceDown:vector(packetBytes) ETV
attr interpolationmode none
attr recordingmode vector(packetBytes)
attr source packetDropReasonIsInterfaceDown(packetDropped)
attr title "packet drops: interface down, packetBytes"
vector 270 WirelessB.hostR5.wlan[0] packetDropNoCarrier:vector(packetBytes) ETV
attr interpolationmode none
attr recordingmode vector(packetBytes)
attr source packetDropReasonIsNoCarrier(packetDropped)
attr title "packet drops: no carrier, packetBytes"
vector 271 WirelessB.hostR5.ipv4.ip packetDropAddressResolutionFailed:vector(packetBytes) ETV
attr interpolationmode none
attr recordingmode vector(packetBytes)
attr source packetDropReasonIsAddressResolutionFailed(packetDropped)
attr title "packet drop: address resolution failed, packetBytes"
vector 272 WirelessB.hostR5.ipv4.ip packetDropHopLimitReached:vector(packetBytes) ETV
attr interpolationmode none
attr recordingmode vector(packetBytes)
attr source packetDropReasonIsHopLimitReached(packetDropped)
attr title "packet drop: hop limit reached, packetBytes"
vector 273 WirelessB.hostR5.ipv4.ip packetDropForwardingDisabled:vector(packetBytes) ETV
attr interpolationmode none
attr recordingmode vector(packetBytes)
attr source packetDropReasonIsForwardingDisabled(packetDropped)
attr title "packet drop: forwarding disabled, packetBytes"
vector 274 WirelessB.hostR5.ipv4.ip packetDropNoInterfaceFound:vector(packetBytes) ETV
attr interpolationmode none
attr recordingmode vector(packetBytes)
attr source packetDropReasonIsNoInterfaceFound(packetDropped)
attr title "packet drop: no interface found, packetBytes"
vector 275 WirelessB.hostR5.ipv4.ip packetDropNoRouteFound:vector(packetBytes) ETV
attr interpolationmode none
attr recordingmode vector(packetBytes)
attr source packetDropReasonIsNoRouteFound(packetDropped)
attr title "packet drop: no route found, packetBytes"
vector 276 WirelessB.hostR5.ipv4.ip packetDropUndefined:vector(packetBytes) ETV
attr interpolationmode none
attr recordingmode vector(packetBytes)
attr source packetDropReasonIsUndefined(packetDropped)
attr title "packet drop: undefined, packetBytes"
vector 277 WirelessB.hostR5.udp packetSent:vector(packetBytes) ETV
attr interpolationmode none
attr recordingmode vector(packetBytes)
attr source packetSent
attr title "packets sent, packetBytes"
vector 278 WirelessB.hostR5.udp packetReceived:vector(packetBytes) ETV
attr interpolationmode none
attr recordingmode vector(packetBytes)
attr source packetReceived
attr title "packets received, packetBytes"
vector 279 WirelessB.hostR5.udp passedUpPk:vector(count) ETV
attr interpolationmode none
attr recordingmode vector(count)
attr source packetSentToUpper
attr title "packets passed up, count"
vector 280 WirelessB.hostR5.udp droppedPkWrongPort:vector(count) ETV
attr interpolationmode none
attr recordingmode vector(count)
attr source packetDropReasonIsNoPortFound(packetDropped)
attr title "packets dropped (wrong port), count"
vector 281 WirelessB.hostR5.udp droppedPkBadChecksum:vector(count) ETV
attr interpolationmode none
attr recordingmode vector(count)
attr source packetDropReasonIsIncorrectlyReceived(packetDropped)
attr title "packets dropped (checksum error), count"
vector 282 WirelessB.hostR6.energyStorage powerConsumption:vector ETV
attr interpolationmode sample-hold
attr recordingmode vector
attr source powerConsumptionChanged
attr title "Power consumption"
attr unit W
vector 283 WirelessB.hostR6.energyStorage powerGeneration:vector ETV
attr interpolationmode sample-hold
attr recordingmode vector
attr source powerGenerationChanged
attr title "Power generation"
attr unit W
vector 284 WirelessB.hostR6.energyStorage residualEnergyCapacity:vector ETV
attr interpolationmode linear
attr recordingmode vector
attr source residualEnergyCapacityChanged
attr title "Residual energy capacity"
attr unit J
vector 285 WirelessB.hostR6.lo[0].lo rcvdPkFromHl:vector(packetBytes) ETV
attr interpolationmode none
attr recordingmode vector(packetBytes)
attr source packetReceivedFromUpper
attr title "packets received from higher layer, packetBytes"
vector 286 WirelessB.hostR6.lo[0].lo passedUpPk:vector(packetBytes) ETV
attr interpolationmode none
attr recordingmode vector(packetBytes)
attr source packetSentToUpper
attr title "packets passed to higher layer, packetBytes"
vector 287 WirelessB.hostR6.lo[0] packetDropInterfaceDown:vector(packetBytes) ETV
attr interpolationmode none
attr recordingmode vector(packetBytes)
attr source packetDropReasonIsInterfaceDown(packetDropped)
attr title "packet drops: interface down, packetBytes"
vector 288 WirelessB.hostR6.lo[0] packetDropNoCarrier:vector(packetBytes) ETV
attr interpolationmode none
attr recordingmode vector(packetBytes)
attr source packetDropReasonIsNoCarrier(packetDropped)
attr title "packet drops: no carrier, packetBytes"
vector 289 WirelessB.hostR6.wlan[0].queue queueLength:vector ETV
attr autoWarmupFilter false
attr interpolationmode sample-hold
attr recordingmode vector
attr source "warmup(atomic(constant0(packetPushEnded) + count(packetPushStarted) - count(packetPulled) - count(packetRemoved) - count(packetDropped)))"
attr title "queue length"
attr unit pk
vector 290 WirelessB.hostR6.wlan[0].queue queueBitLength:vector ETV
attr autoWarmupFilter false
attr interpolationmode sample-hold
attr recordingmode vector
attr source "warmup(atomic(constant0(packetPushEnded) + sum(packetLength(packetPushStarted)) - sum(packetLength(packetPulled)) - sum(packetLength(packetRemoved)) - sum(packetLength(packetDropped))))"
attr title "queue bit length"
attr unit b
vector 291 WirelessB.hostR6.wlan[0].queue queueingTime:vector ETV
attr interpolationmode none
attr recordingmode vector
attr source queueingTime(packetPulled)
attr title "queueing times"
attr unit s
vector 292 WirelessB.hostR6.wlan[0].queue incomingPacketLengths:vector ETV
attr interpolationmode none
attr recordingmode vector
attr source packetLength(packetPushStarted)
attr title "incoming packet lengths"
attr unit b
vector 293 WirelessB.hostR6.wlan[0].queue incomingDataRate:vector ETV
attr interpolationmode linear
attr recordingmode vector
attr source throughput(packetPushStarted)
attr title "incoming datarate"
attr unit bps
vector 294 WirelessB.hostR6.wlan[0].queue outgoingPacketLengths:vector ETV
attr interpolationmode none
attr recordingmode vector
attr source packetLength(packetPulled)
attr title "outgoing packet lengths"
attr unit b
vector 295 WirelessB.hostR6.wlan[0].queue outgoingDataRate:vector ETV
attr interpolationmode linear
attr recordingmode vector
attr source throughput(packetPulled)
attr title "outgoing datarate"
attr unit bps
vector 296 WirelessB.hostR6.wlan[0].queue droppedPacketLengthsQueueOverflow:vector ETV
attr interpolationmode none
attr recordingmode vector
attr source packetLength(packetDropReasonIsQueueOverflow(packetDropped))
attr title "dropped packet lengths: queue overflow"
attr unit b
vector 297 WirelessB.hostR6.wlan[0].queue flowQueueingTime:vector ETV
attr interpolationmode none
attr recordingmode vector
attr source queueingTime(demuxFlow(packetPulled))
attr title "flow queueing times"
attr unit s
vector 298 WirelessB.hostR6.wlan[0].queue flowIncomingDataRate:vector ETV
attr interpolationmode linear
attr recordingmode vector
attr source throughput(flowPacketLength(demuxFlow(packetPushStarted)))
attr title "flow specific incoming data rate"
attr unit bps
vector 299 WirelessB.hostR6.wlan[0].queue flowOutgoingDataRate:vector ETV
attr interpolationmode linear
attr recordingmode vector
attr source throughput(flowPacketLength(demuxFlow(packetPulled)))
attr title "flow specific outgoing data rate"
attr unit bps
vector 300 WirelessB.hostR6.wlan[0].mac packetDropIncorrectlyReceived:vector(packetBytes) ETV
attr interpolationmode none
attr recordingmode vector(packetBytes)
attr source packetDropReasonIsIncorrectlyReceived(packetDropped)
attr title "packet drop: incorrectly received, packetBytes"
vector 301 WirelessB.hostR6.wlan[0].mac packetDropNotAddressedToUs:vector(packetBytes) ETV
attr interpolationmode none
attr recordingmode vector(packetBytes)
attr source packetDropReasonIsNotAddressedToUs(packetDropped)
attr title "packet drop: not addressed to us, packetBytes"
vector 302 WirelessB.hostR6.wlan[0].mac packetDropQueueOverflow:vector(packetBytes) ETV
attr interpolationmode none
attr recordingmode vector(packetBytes)
attr source packetDropReasonIsQueueOverflow(packetDropped)
attr title "packet drop: queue overflow, packetBytes"
vector 303 WirelessB.hostR6.wlan[0].mac packetDropRetryLimitReached:vector(packetBytes) ETV
attr interpolationmode none
attr recordingmode vector(packetBytes)
attr source packetDropReasonIsRetryLimitReached(packetDropped)
attr title "packet drop: retry limit reached, packetBytes"
vector 304 WirelessB.hostR6.wlan[0].radio.energyConsumer powerConsumption:vector ETV
attr interpolationmode sample-hold
attr recordingmode vector
attr source powerConsumptionChanged
attr title "Power consumption"
attr unit W
vector 305 WirelessB.hostR6.wlan[0].radio radioMode:vector ETV
attr interpolationmode sample-hold
attr recordingmode vector
attr source radioModeChanged
attr title "Radio mode"
[...]
657	2617	0.247070489998	1
657	2647	0.247342008938	2
657	2678	0.255878008938	1
657	2692	0.255888039702	3
657	2712	0.256128039702	1
657	2746	0.25633955589	2
657	2791	0.26487555589	1
657	2876	0.273932681928	2
657	2898	0.274172681928	1
657	2919	0.274682681726	2
657	2950	0.283218681726	1
657	2964	0.283228713974	3
657	2984	0.283468713974	1
657	3057	0.292087355507	2
657	3079	0.292327355507	1
657	3100	0.29259735537	2
657	3144	0.30113335537	1
657	3158	0.301143388613	3
657	3178	0.301383388613	1
657	3208	0.301714890906	2
657	3239	0.310250890906	1
657	3253	0.310260924663	3
657	3273	0.310500924663	1
657	3303	0.310612424216	2
657	3330	0.319148424216	1
657	3344	0.319158458479	3
657	3364	0.319398458479	1
657	3437	0.328017096995	2
657	3459	0.328257096995	1
657	3527	0.337074248165	2
657	3549	0.337314248165	1
657	3570	0.337384248081	2
657	3597	0.345920248081	1
657	3611	0.345930283895	3
657	3631	0.346170283895	1
657	3708	0.355008920115	2
657	3730	0.355248920115	1
657	3751	0.355558919966	2
657	3782	0.364094919966	1
657	3796	0.364104956856	3
657	3816	0.364344956856	1
657	3893	0.373163591543	2
657	3915	0.373403591543	1
657	3936	0.373813591368	2
657	3963	0.382349591368	1
657	3977	0.382359629359	3
657	3997	0.382599629359	1
657	4070	0.39133826251	2
657	4092	0.39157826251	1
657	4113	0.391808262384	2
657	4157	0.400344262384	1
657	4171	0.40035430148	3
657	4191	0.40059430148	1
657	4264	0.409572933061	2
657	4286	0.409812933061	1
657	4307	0.40998293295	2
657	4338	0.41851893295	1
657	4352	0.418528973182	3
657	4372	0.418768973182	1
657	4445	0.427687603222	2
657	4467	0.427927603222	1
657	4531	0.436544774353	2
672	2015	0.192937198825	0.002
672	2033	0.192947211758	0.005
672	2059	0.193187211758	0.002
672	2080	0.193517211639	0.005
672	2124	0.202053211639	0.002
672	2139	0.202063574035	0
672	2139	0.202063574035	0.01
672	2158	0.202303574035	0.002
672	2189	0.202455875334	0.005
672	2189	0.202455875334	0.005
672	2217	0.210991875334	0.002
672	2235	0.21100188895	0.005
672	2257	0.21124188895	0.002
672	2279	0.211553004101	0.005
672	2303	0.220089004101	0.002
672	2321	0.220099018067	0.005
672	2343	0.220339018067	0.002
672	2364	0.220509017981	0.005
672	2395	0.229045017981	0.002
672	2410	0.229055379389	0
672	2410	0.229055379389	0.01
672	2429	0.229295379389	0.002
672	2459	0.229386572282	0.005
672	2459	0.229386572282	0.005
672	2486	0.237922572282	0.002
672	2501	0.23793293337	0
672	2501	0.23793293337	0.01
672	2520	0.23817293337	0.002
672	2550	0.238284124335	0.005
672	2550	0.238284124335	0.005
672	2581	0.246820124335	0.002
672	2596	0.246830485105	0
672	2596	0.246830485105	0.01
672	2615	0.247070485105	0.002
672	2645	0.247341674107	0.005
672	2645	0.247341674107	0.005
672	2676	0.255877674107	0.002
672	2691	0.255888034555	0
672	2691	0.255888034555	0.01
672	2710	0.256128034555	0.002
672	2742	0.256339221608	0.005
672	2742	0.256339221608	0.005
672	2800	0.264876333995	0.002
672	2828	0.265386332608	0.005
672	2856	0.273922332608	0.002
672	2873	0.27393234872	0.005
672	2895	0.27417234872	0.002
672	2916	0.274682348564	0.005
672	2947	0.283218348564	0.002
672	2963	0.283228708055	0
672	2963	0.283228708055	0.01
672	2982	0.283468708055	0.002
672	3013	0.283541006548	0.005
672	3013	0.283541006548	0.005
672	3037	0.292077006548	0.002
672	3054	0.292087023413	0.005
672	3076	0.292327023413	0.002
672	3097	0.292597023306	0.005
672	3141	0.301133023306	0.002
672	3157	0.301143382183	0
672	3157	0.301143382183	0.01
672	3176	0.301383382183	0.002
672	3205	0.301714559404	0.005
672	3205	0.301714559404	0.005
672	3236	0.310250559404	0.002
672	3252	0.310260917972	0
672	3252	0.310260917972	0.01
672	3271	0.310500917972	0.002
672	3300	0.310612093263	0.005
672	3300	0.310612093263	0.005
672	3327	0.319148093263	0.002
672	3343	0.319158451532	0
672	3343	0.319158451532	0.01
672	3362	0.319398451532	0.002
672	3393	0.319470748721	0.005
672	3393	0.319470748721	0.005
672	3417	0.328006748721	0.002
672	3434	0.328016767118	0.005
672	3456	0.328256767118	0.002
672	3479	0.328527900059	0.005
672	3507	0.337063900059	0.002
672	3524	0.33707391885	0.005
672	3546	0.33731391885	0.002
672	3567	0.337383918786	0.005
672	3594	0.345919918786	0.002
672	3610	0.345930276172	0
672	3610	0.345930276172	0.01
672	3629	0.346170276172	0.002
672	3660	0.346462572333	0.005
672	3660	0.346462572333	0.005
672	3688	0.354998572333	0.002
672	3705	0.355008591917	0.005
672	3727	0.355248591917	0.002
672	3748	0.355558591803	0.005
672	3779	0.364094591803	0.002
672	3795	0.364104948601	0
672	3795	0.364104948601	0.01
672	3814	0.364344948601	0.002
672	3845	0.364617244079	0.005
672	3845	0.364617244079	0.005
672	3873	0.373153244079	0.002
672	3890	0.37316326448	0.005
672	3912	0.37340326448	0.002
672	3933	0.373813264346	0.005
672	3960	0.382349264346	0.002
672	3976	0.382359620566	0
672	3976	0.382359620566	0.01
672	3995	0.382599620566	0.002
672	4026	0.382791915356	0.005
672	4026	0.382791915356	0.005
672	4050	0.391327915356	0.002
672	4067	0.391337936589	0.005
672	4089	0.391577936589	0.002
672	4110	0.391807936492	0.005
672	4154	0.400343936492	0.002
672	4170	0.400354292152	0
672	4170	0.400354292152	0.01
672	4189	0.400594292152	0.002
672	4220	0.401026586206	0.005
672	4220	0.401026586206	0.005
672	4244	0.409562586206	0.002
672	4261	0.40957260829	0.005
672	4283	0.40981260829	0.002
672	4304	0.409982608205	0.005
672	4335	0.418518608205	0.002
672	4351	0.418528963311	0
672	4351	0.418528963311	0.01
672	4370	0.418768963311	0.002
672	4401	0.419141256659	0.005
672	4401	0.419141256659	0.005
672	4425	0.427677256659	0.002
672	4442	0.4276872796	0.005
672	4464	0.4279272796	0.002
672	4487	0.427998427928	0.005
672	4511	0.436534427928	0.002
672	4528	0.436544451294	0.005
674	2015	0.192937198825	-0.00088190639765
674	2033	0.192947211758	-0.000881926423516
674	2059	0.193187211758	-0.000883126423516
674	2080	0.193517211639	-0.000883786423278
674	2124	0.202053211639	-0.000926466423278
674	2139	0.202063574035	-0.00092648714807
674	2158	0.202303574035	-0.00092888714807
674	2189	0.202455875334	-0.000929191750668
674	2217	0.210991875334	-0.000971871750668
674	2235	0.21100188895	-0.0009718917779
674	2257	0.21124188895	-0.0009730917779
674	2279	0.211553004101	-0.000973714008202
674	2303	0.220089004101	-0.001016394008202
674	2321	0.220099018067	-0.001016414036134
674	2343	0.220339018067	-0.001017614036134
674	2364	0.220509017981	-0.001017954035962
674	2395	0.229045017981	-0.001060634035962
674	2410	0.229055379389	-0.001060654758778
674	2429	0.229295379389	-0.001063054758778
674	2459	0.229386572282	-0.001063237144564
674	2486	0.237922572282	-0.001105917144564
674	2501	0.23793293337	-0.00110593786674
674	2520	0.23817293337	-0.00110833786674
674	2550	0.238284124335	-0.00110856024867
674	2581	0.246820124335	-0.00115124024867
674	2596	0.246830485105	-0.00115126097021
674	2615	0.247070485105	-0.00115366097021
674	2645	0.247341674107	-0.001154203348214
674	2676	0.255877674107	-0.001196883348214
674	2691	0.255888034555	-0.00119690406911
674	2710	0.256128034555	-0.00119930406911
674	2742	0.256339221608	-0.001199726443216
674	2800	0.264876333995	-0.001242412005151
674	2828	0.265386332608	-0.001243432002377
674	2856	0.273922332608	-0.001286112002377
674	2873	0.27393234872	-0.001286132034601
674	2895	0.27417234872	-0.001287332034601
674	2916	0.274682348564	-0.001288352034289
674	2947	0.283218348564	-0.001331032034289
674	2963	0.283228708055	-0.001331052753271
674	2982	0.283468708055	-0.001333452753271
674	3013	0.283541006548	-0.001333597350257
674	3037	0.292077006548	-0.001376277350257
674	3054	0.292087023413	-0.001376297383987
674	3076	0.292327023413	-0.001377497383987
674	3097	0.292597023306	-0.001378037383773
674	3141	0.301133023306	-0.001420717383773
674	3157	0.301143382183	-0.001420738101527
674	3176	0.301383382183	-0.001423138101527
674	3205	0.301714559404	-0.001423800455969
674	3236	0.310250559404	-0.001466480455969
674	3252	0.310260917972	-0.001466501173105
674	3271	0.310500917972	-0.001468901173105
674	3300	0.310612093263	-0.001469123523687
674	3327	0.319148093263	-0.001511803523687
674	3343	0.319158451532	-0.001511824240225
674	3362	0.319398451532	-0.001514224240225
674	3393	0.319470748721	-0.001514368834603
674	3417	0.328006748721	-0.001557048834603
674	3434	0.328016767118	-0.001557068871397
674	3456	0.328256767118	-0.001558268871397
674	3479	0.328527900059	-0.001558811137279
674	3507	0.337063900059	-0.001601491137279
674	3524	0.33707391885	-0.001601511174861
674	3546	0.33731391885	-0.001602711174861
674	3567	0.337383918786	-0.001602851174733
674	3594	0.345919918786	-0.001645531174733
674	3610	0.345930276172	-0.001645551889505
674	3629	0.346170276172	-0.001647951889505
674	3660	0.346462572333	-0.001648536481827
674	3688	0.354998572333	-0.001691216481827
674	3705	0.355008591917	-0.001691236520995
674	3727	0.355248591917	-0.001692436520995
674	3748	0.355558591803	-0.001693056520767
674	3779	0.364094591803	-0.001735736520767
674	3795	0.364104948601	-0.001735757234363
674	3814	0.364344948601	-0.001738157234363
674	3845	0.364617244079	-0.001738701825319
674	3873	0.373153244079	-0.001781381825319
674	3890	0.37316326448	-0.001781401866121
674	3912	0.37340326448	-0.001782601866121
674	3933	0.373813264346	-0.001783421865853
674	3960	0.382349264346	-0.001826101865853
674	3976	0.382359620566	-0.001826122578293
674	3995	0.382599620566	-0.001828522578293
674	4026	0.382791915356	-0.001828907167873
674	4050	0.391327915356	-0.001871587167873
674	4067	0.391337936589	-0.001871607210339
674	4089	0.391577936589	-0.001872807210339
674	4110	0.391807936492	-0.001873267210145
674	4154	0.400343936492	-0.001915947210145
674	4170	0.400354292152	-0.001915967921465
674	4189	0.400594292152	-0.001918367921465
674	4220	0.401026586206	-0.001919232509573
674	4244	0.409562586206	-0.001961912509573
674	4261	0.40957260829	-0.001961932553741
674	4283	0.40981260829	-0.001963132553741
674	4304	0.409982608205	-0.001963472553571
674	4335	0.418518608205	-0.002006152553571
674	4351	0.418528963311	-0.002006173263783
674	4370	0.418768963311	-0.002008573263783
674	4401	0.419141256659	-0.002009317850479
674	4425	0.427677256659	-0.002051997850479
674	4442	0.4276872796	-0.002052017896361
674	4464	0.4279272796	-0.002053217896361
674	4487	0.427998427928	-0.002053360193017
674	4511	0.436534427928	-0.002096040193017
674	4528	0.436544451294	-0.002096060239749
694	2015	0.192937198825	0.002
694	2033	0.192947211758	0.005
694	2059	0.193187211758	0.002
694	2080	0.193517211639	0.005
694	2124	0.202053211639	0.002
694	2139	0.202063574035	0
694	2139	0.202063574035	0.01
694	2158	0.202303574035	0.002
694	2189	0.202455875334	0.005
694	2189	0.202455875334	0.005
694	2217	0.210991875334	0.002
694	2235	0.21100188895	0.005
694	2257	0.21124188895	0.002
694	2279	0.211553004101	0.005
694	2303	0.220089004101	0.002
694	2321	0.220099018067	0.005
694	2343	0.220339018067	0.002
694	2364	0.220509017981	0.005
694	2395	0.229045017981	0.002
694	2410	0.229055379389	0
694	2410	0.229055379389	0.01
694	2429	0.229295379389	0.002
694	2459	0.229386572282	0.005
694	2459	0.229386572282	0.005
694	2486	0.237922572282	0.002
694	2501	0.23793293337	0
694	2501	0.23793293337	0.01
694	2520	0.23817293337	0.002
694	2550	0.238284124335	0.005
694	2550	0.238284124335	0.005
694	2581	0.246820124335	0.002
694	2596	0.246830485105	0
694	2596	0.246830485105	0.01
694	2615	0.247070485105	0.002
694	2645	0.247341674107	0.005
694	2645	0.247341674107	0.005
694	2676	0.255877674107	0.002
694	2691	0.255888034555	0
694	2691	0.255888034555	0.01
694	2710	0.256128034555	0.002
694	2742	0.256339221608	0.005
694	2742	0.256339221608	0.005
694	2800	0.264876333995	0.002
694	2828	0.265386332608	0.005
694	2856	0.273922332608	0.002
694	2873	0.27393234872	0.005
694	2895	0.27417234872	0.002
694	2916	0.274682348564	0.005
694	2947	0.283218348564	0.002
694	2963	0.283228708055	0
694	2963	0.283228708055	0.01
694	2982	0.283468708055	0.002
694	3013	0.283541006548	0.005
694	3013	0.283541006548	0.005
694	3037	0.292077006548	0.002
694	3054	0.292087023413	0.005
694	3076	0.292327023413	0.002
694	3097	0.292597023306	0.005
694	3141	0.301133023306	0.002
694	3157	0.301143382183	0
694	3157	0.301143382183	0.01
694	3176	0.301383382183	0.002
694	3205	0.301714559404	0.005
694	3205	0.301714559404	0.005
694	3236	0.310250559404	0.002
694	3252	0.310260917972	0
694	3252	0.310260917972	0.01
694	3271	0.310500917972	0.002
694	3300	0.310612093263	0.005
694	3300	0.310612093263	0.005
694	3327	0.319148093263	0.002
694	3343	0.319158451532	0
694	3343	0.319158451532	0.01
694	3362	0.319398451532	0.002
694	3393	0.319470748721	0.005
694	3393	0.319470748721	0.005
694	3417	0.328006748721	0.002
694	3434	0.328016767118	0.005
694	3456	0.328256767118	0.002
694	3479	0.328527900059	0.005
694	3507	0.337063900059	0.002
694	3524	0.33707391885	0.005
694	3546	0.33731391885	0.002
694	3567	0.337383918786	0.005
694	3594	0.345919918786	0.002
694	3610	0.345930276172	0
694	3610	0.345930276172	0.01
694	3629	0.346170276172	0.002
694	3660	0.346462572333	0.005
694	3660	0.346462572333	0.005
694	3688	0.354998572333	0.002
694	3705	0.355008591917	0.005
694	3727	0.355248591917	0.002
694	3748	0.355558591803	0.005
694	3779	0.364094591803	0.002
694	3795	0.364104948601	0
694	3795	0.364104948601	0.01
694	3814	0.364344948601	0.002
694	3845	0.364617244079	0.005
694	3845	0.364617244079	0.005
694	3873	0.373153244079	0.002
694	3890	0.37316326448	0.005
694	3912	0.37340326448	0.002
694	3933	0.373813264346	0.005
694	3960	0.382349264346	0.002
694	3976	0.382359620566	0
694	3976	0.382359620566	0.01
694	3995	0.382599620566	0.002
694	4026	0.382791915356	0.005
694	4026	0.382791915356	0.005
694	4050	0.391327915356	0.002
694	4067	0.391337936589	0.005
694	4089	0.391577936589	0.002
694	4110	0.391807936492	0.005
694	4154	0.400343936492	0.002
694	4170	0.400354292152	0
694	4170	0.400354292152	0.01
694	4189	0.400594292152	0.002
694	4220	0.401026586206	0.005
694	4220	0.401026586206	0.005
694	4244	0.409562586206	0.002
694	4261	0.40957260829	0.005
694	4283	0.40981260829	0.002
694	4304	0.409982608205	0.005
694	4335	0.418518608205	0.002
694	4351	0.418528963311	0
694	4351	0.418528963311	0.01
694	4370	0.418768963311	0.002
694	4401	0.419141256659	0.005
694	4401	0.419141256659	0.005
694	4425	0.427677256659	0.002
694	4442	0.4276872796	0.005
694	4464	0.4279272796	0.002
694	4487	0.427998427928	0.005
694	4511	0.436534427928	0.002
694	4528	0.436544451294	0.005
696	2015	0.192937198825	1
696	2033	0.192947211758	2
696	2059	0.193187211758	1
696	2080	0.193517211639	2
696	2124	0.202053211639	1
696	2139	0.202063574035	3
696	2158	0.202303574035	1
696	2189	0.202455875334	2
696	2217	0.210991875334	1
696	2235	0.21100188895	2
696	2257	0.21124188895	1
696	2279	0.211553004101	2
696	2303	0.220089004101	1
696	2321	0.220099018067	2
696	2343	0.220339018067	1
696	2364	0.220509017981	2
696	2395	0.229045017981	1
696	2410	0.229055379389	3
696	2429	0.229295379389	1
696	2459	0.229386572282	2
696	2486	0.237922572282	1
696	2501	0.23793293337	3
696	2520	0.23817293337	1
696	2550	0.238284124335	2
696	2581	0.246820124335	1
696	2596	0.246830485105	3
696	2615	0.247070485105	1
696	2645	0.247341674107	2
696	2676	0.255877674107	1
696	2691	0.255888034555	3
696	2710	0.256128034555	1
696	2742	0.256339221608	2
696	2800	0.264876333995	1
696	2828	0.265386332608	2
696	2856	0.273922332608	1
696	2873	0.27393234872	2
696	2895	0.27417234872	1
696	2916	0.274682348564	2
696	2947	0.283218348564	1
696	2963	0.283228708055	3
696	2982	0.283468708055	1
696	3013	0.283541006548	2
696	3037	0.292077006548	1
696	3054	0.292087023413	2
696	3076	0.292327023413	1
696	3097	0.292597023306	2
696	3141	0.301133023306	1
696	3157	0.301143382183	3
696	3176	0.301383382183	1
696	3205	0.301714559404	2
696	3236	0.310250559404	1
696	3252	0.310260917972	3
696	3271	0.310500917972	1
696	3300	0.310612093263	2
696	3327	0.319148093263	1
696	3343	0.319158451532	3
696	3362	0.319398451532	1
696	3393	0.319470748721	2
696	3417	0.328006748721	1
696	3434	0.328016767118	2
696	3456	0.328256767118	1
696	3479	0.328527900059	2
696	3507	0.337063900059	1
696	3524	0.33707391885	2
696	3546	0.33731391885	1
696	3567	0.337383918786	2
696	3594	0.345919918786	1
696	3610	0.345930276172	3
696	3629	0.346170276172	1
696	3660	0.346462572333	2
696	3688	0.354998572333	1
696	3705	0.355008591917	2
696	3727	0.355248591917	1
696	3748	0.355558591803	2
696	3779	0.364094591803	1
696	3795	0.364104948601	3
696	3814	0.364344948601	1
696	3845	0.364617244079	2
696	3873	0.373153244079	1
696	3890	0.37316326448	2
696	3912	0.37340326448	1
696	3933	0.373813264346	2
696	3960	0.382349264346	1
696	3976	0.382359620566	3
696	3995	0.382599620566	1
696	4026	0.382791915356	2
696	4050	0.391327915356	1
696	4067	0.391337936589	2
696	4089	0.391577936589	1
696	4110	0.391807936492	2
696	4154	0.400343936492	1
696	4170	0.400354292152	3
696	4189	0.400594292152	1
696	4220	0.401026586206	2
696	4244	0.409562586206	1
696	4261	0.40957260829	2
696	4283	0.40981260829	1
696	4304	0.409982608205	2
696	4335	0.418518608205	1
696	4351	0.418528963311	3
696	4370	0.418768963311	1
696	4401	0.419141256659	2
696	4425	0.427677256659	1
696	4442	0.4276872796	2
696	4464	0.4279272796	1
696	4487	0.427998427928	2
696	4511	0.436534427928	1
696	4528	0.436544451294	2
11	4540	0.43667301718	224252.06957024
13	4540	0.43667301718	448504.13914048
40	4540	0.1	0
40	4540	0.2	0
40	4540	0.3	0
40	4540	0.4	0
40	4540	0.43667301718	0
55	4540	0.1	3840
55	4540	0.2	0
55	4540	0.3	0
55	4540	0.4	0
55	4540	0.43667301718	0
57	4540	0.1	3840
57	4540	0.2	0
57	4540	0.3	0
57	4540	0.4	0
57	4540	0.43667301718	0
84	4540	0.43667301718	436288.07309385
98	4540	0.1	0
98	4540	0.2	0
98	4540	0.3	0
98	4540	0.4	0
98	4540	0.43667301718	0
100	4540	0.1	0
100	4540	0.2	0
100	4540	0.3	0
100	4540	0.4	0
100	4540	0.43667301718	0
137	4540	0.1	0
137	4540	0.2	0
137	4540	0.3	0
137	4540	0.4	0
137	4540	0.43667301718	0
139	4540	0.1	0
139	4540	0.2	0
139	4540	0.3	0
139	4540	0.4	0
139	4540	0.43667301718	0
176	4540	0.1	0
176	4540	0.2	0
176	4540	0.3	0
176	4540	0.4	0
176	4540	0.43667301718	0
178	4540	0.1	0
178	4540	0.2	0
178	4540	0.3	0
178	4540	0.4	0
178	4540	0.43667301718	0
215	4540	0.1	0
215	4540	0.2	0
215	4540	0.3	0
215	4540	0.4	0
215	4540	0.43667301718	0
217	4540	0.1	0
217	4540	0.2	0
217	4540	0.3	0
217	4540	0.4	0
217	4540	0.43667301718	0
254	4540	0.1	0
254	4540	0.2	0
254	4540	0.3	0
254	4540	0.4	0
254	4540	0.43667301718	0
256	4540	0.1	0
256	4540	0.2	0
256	4540	0.3	0
256	4540	0.4	0
256	4540	0.43667301718	0
293	4540	0.1	0
293	4540	0.2	0
293	4540	0.3	0
293	4540	0.4	0
293	4540	0.43667301718	0
295	4540	0.1	0
295	4540	0.2	0
295	4540	0.3	0
295	4540	0.4	0
295	4540	0.43667301718	0
332	4540	0.1	0
332	4540	0.2	0
332	4540	0.3	0
332	4540	0.4	0
332	4540	0.43667301718	0
334	4540	0.1	0
334	4540	0.2	0
334	4540	0.3	0
334	4540	0.4	0
334	4540	0.43667301718	0
371	4540	0.43667301718	672756.20871072
373	4540	0.43667301718	448504.13914048
410	4540	0.1	0
410	4540	0.2	0
410	4540	0.3	0
410	4540	0.4	0
410	4540	0.43667301718	0
412	4540	0.1	0
412	4540	0.2	0
412	4540	0.3	0
412	4540	0.4	0
412	4540	0.43667301718	0
449	4540	0.1	0
449	4540	0.2	0
449	4540	0.3	0
449	4540	0.4	0
449	4540	0.43667301718	0
451	4540	0.1	0
451	4540	0.2	0
451	4540	0.3	0
451	4540	0.4	0
451	4540	0.43667301718	0
488	4540	0.1	4160
488	4540	0.2	0
488	4540	0.3	0
488	4540	0.4	0
488	4540	0.43667301718	0
490	4540	0.1	4160
490	4540	0.2	0
490	4540	0.3	0
490	4540	0.4	0
490	4540	0.43667301718	0
527	4540	0.1	0
527	4540	0.2	0
527	4540	0.3	0
527	4540	0.4	0
527	4540	0.43667301718	0
529	4540	0.1	0
529	4540	0.2	0
529	4540	0.3	0
529	4540	0.4	0
529	4540	0.43667301718	0
566	4540	0.1	0
566	4540	0.2	0
566	4540	0.3	0
566	4540	0.4	0
566	4540	0.43667301718	0
568	4540	0.1	0
568	4540	0.2	0
568	4540	0.3	0
568	4540	0.4	0
568	4540	0.43667301718	0
605	4540	0.1	0
605	4540	0.2	0
605	4540	0.3	0
605	4540	0.4	0
605	4540	0.43667301718	0
607	4540	0.1	0
607	4540	0.2	0
607	4540	0.3	0
607	4540	0.4	0
607	4540	0.43667301718	0
644	4540	0.1	0
644	4540	0.2	0
644	4540	0.3	0
644	4540	0.4	0
644	4540	0.43667301718	0
646	4540	0.1	0
646	4540	0.2	0
646	4540	0.3	0
646	4540	0.4	0
646	4540	0.43667301718	0
683	4540	0.1	0
683	4540	0.2	0
683	4540	0.3	0
683	4540	0.4	0
683	4540	0.43667301718	0
685	4540	0.1	0
685	4540	0.2	0
685	4540	0.3	0
685	4540	0.4	0
685	4540	0.43667301718	0

