version 3
run Wireless09-0-20251123-21:44:32-76657
attr configname Wireless09
attr datetime 20251123-21:44:32
attr datetimef 20251123-214432
attr experiment Wireless09
attr inifile omnetpp.ini
attr iterationvars ""
attr iterationvarsd ""
attr iterationvarsf ""
attr measurement ""
attr network WirelessB
attr processid 76657
attr repetition 0
attr replication #0
attr resultdir results
attr runnumber 0
attr seedset 0
config image-path ../inet4.5/images
config description "Configuring node movements"
config extends Wireless08
config *.hostR*.mobility.typename LinearMobility
config *.hostR*.mobility.speed 50mps
config *.hostR*.mobility.initialMovementHeading 270deg
config *.host*.wlan[0].queue.packetCapacity 10
config *.visualizer.mobilityVisualizer.displayVelocities true
config *.visualizer.mobilityVisualizer.displayMovementTrails true
config description "Modeling energy consumption"
config extends Wireless07
config *.host*.wlan[0].radio.energyConsumer.typename StateBasedEpEnergyConsumer
config *.host*.wlan[0].radio.energyConsumer.offPowerConsumption 0mW
config *.host*.wlan[0].radio.energyConsumer.sleepPowerConsumption 1mW
config *.host*.wlan[0].radio.energyConsumer.switchingPowerConsumption 1mW
config *.host*.wlan[0].radio.energyConsumer.receiverIdlePowerConsumption 2mW
config *.host*.wlan[0].radio.energyConsumer.receiverBusyPowerConsumption 5mW
config *.host*.wlan[0].radio.energyConsumer.receiverReceivingPowerConsumption 10mW
config *.host*.wlan[0].radio.energyConsumer.transmitterIdlePowerConsumption 2mW
config *.host*.wlan[0].radio.energyConsumer.transmitterTransmittingPowerConsumption 100mW
config *.host*.energyStorage.typename IdealEpEnergyStorage
config *.host*.wlan[0].radio.displayInterferenceRange false
config *.hostR1.wlan[0].radio.displayCommunicationRange false
config *.visualizer.mediumVisualizer.displaySignals false
config description "Turning on ACKs in CSMA"
config extends Wireless06
config *.host*.wlan[0].mac.useAck true
config description "Using CSMA to better utilize the medium"
config extends Wireless05
config *.host*.wlan[0].typename WirelessInterface
config *.host*.wlan[0].radio.typename UnitDiskRadio
config *.host*.wlan[0].mac.typename CsmaCaMac
config *.host*.wlan[0].mac.ackTimeout 300us
config *.host*.wlan[0].queue.typename DropTailQueue
config *.host*.wlan[0].queue.packetCapacity -1
config description "Taking interference into account"
config extends Wireless04
config *.host*.wlan[0].radio.receiver.ignoreInterference false
config *.host*.wlan[0].radio.transmitter.interferenceRange 500m
config *.hostA.wlan[0].radio.displayInterferenceRange true
config *.visualizer.dataLinkVisualizer.packetFilter "\"\""
config description "Setting up static routing"
config extends Wireless03
config *.host*.forwarding true
config *.configurator.config "xml(\"<config><interface hosts='**' address='10.0.0.x' netmask='255.255.255.0'/><autoroute metric='errorRate'/></config>\")"
config *.configurator.optimizeRoutes false
config *.host*.ipv4.routingTable.netmaskRoutes "\"\""
config *.visualizer.physicalLinkVisualizer.displayLinks true
config *.visualizer.dataLinkVisualizer.displayLinks true
config *.visualizer.networkRouteVisualizer.displayRoutes true
config *.visualizer.*LinkVisualizer.lineShift 0
config *.visualizer.networkRouteVisualizer.lineShift 0
config *.visualizer.networkRouteVisualizer.packetFilter "\"UDPData*\""
config description "Adding more nodes and decreasing the communication range"
config extends Wireless02
config network WirelessB
config *.host*.wlan[0].radio.transmitter.communicationRange 250m
config *.hostR1.wlan[0].radio.displayCommunicationRange true
config description "Setting up some animations"
config extends Wireless01
config *.hostA.wlan[0].radio.displayCommunicationRange true
config *.visualizer.sceneVisualizer.descriptionFigure "\"title\""
config *.visualizer.mediumVisualizer.displaySignals true
config *.visualizer.physicalLinkVisualizer.displayLinks true
config *.visualizer.physicalLinkVisualizer.packetFilter "\"UDPData*\""
config description "Two hosts communicating wirelessly"
config network WirelessA
config sim-time-limit 20s
config *.host*.ipv4.arp.typename GlobalArp
config *.hostA.numApps 1
config *.hostA.app[0].typename UdpBasicApp
config *.hostA.app[0].destAddresses "\"hostB\""
config *.hostA.app[0].destPort 5000
config *.hostA.app[0].messageLength 1000B
config *.hostA.app[0].sendInterval exponential(12ms)
config *.hostA.app[0].packetName "\"UDPData\""
config *.hostB.numApps 1
config *.hostB.app[0].typename UdpSink
config *.hostB.app[0].localPort 5000
config *.host*.wlan[0].typename AckingWirelessInterface
config *.host*.wlan[0].mac.useAck false
config *.host*.wlan[0].mac.fullDuplex false
config *.host*.wlan[0].radio.transmitter.communicationRange 500m
config *.host*.wlan[0].radio.receiver.ignoreInterference true
config *.host*.wlan[0].mac.headerLength 23B
config *.host*.**.bitrate 1Mbps

vector 0 WirelessB.hostA.energyStorage powerConsumption:vector ETV
attr interpolationmode sample-hold
attr recordingmode vector
attr source powerConsumptionChanged
attr title "Power consumption"
attr unit W
vector 1 WirelessB.hostA.energyStorage powerGeneration:vector ETV
attr interpolationmode sample-hold
attr recordingmode vector
attr source powerGenerationChanged
attr title "Power generation"
attr unit W
vector 2 WirelessB.hostA.energyStorage residualEnergyCapacity:vector ETV
attr interpolationmode linear
attr recordingmode vector
attr source residualEnergyCapacityChanged
attr title "Residual energy capacity"
attr unit J
vector 3 WirelessB.hostA.lo[0].lo rcvdPkFromHl:vector(packetBytes) ETV
attr interpolationmode none
attr recordingmode vector(packetBytes)
attr source packetReceivedFromUpper
attr title "packets received from higher layer, packetBytes"
vector 4 WirelessB.hostA.lo[0].lo passedUpPk:vector(packetBytes) ETV
attr interpolationmode none
attr recordingmode vector(packetBytes)
attr source packetSentToUpper
attr title "packets passed to higher layer, packetBytes"
vector 5 WirelessB.hostA.lo[0] packetDropInterfaceDown:vector(packetBytes) ETV
attr interpolationmode none
attr recordingmode vector(packetBytes)
attr source packetDropReasonIsInterfaceDown(packetDropped)
attr title "packet drops: interface down, packetBytes"
vector 6 WirelessB.hostA.lo[0] packetDropNoCarrier:vector(packetBytes) ETV
attr interpolationmode none
attr recordingmode vector(packetBytes)
attr source packetDropReasonIsNoCarrier(packetDropped)
attr title "packet drops: no carrier, packetBytes"
vector 7 WirelessB.hostA.wlan[0].queue queueLength:vector ETV
attr autoWarmupFilter false
attr interpolationmode sample-hold
attr recordingmode vector
attr source "warmup(atomic(constant0(packetPushEnded) + count(packetPushStarted) - count(packetPulled) - count(packetRemoved) - count(packetDropped)))"
attr title "queue length"
attr unit pk
vector 8 WirelessB.hostA.wlan[0].queue queueBitLength:vector ETV
attr autoWarmupFilter false
attr interpolationmode sample-hold
attr recordingmode vector
attr source "warmup(atomic(constant0(packetPushEnded) + sum(packetLength(packetPushStarted)) - sum(packetLength(packetPulled)) - sum(packetLength(packetRemoved)) - sum(packetLength(packetDropped))))"
attr title "queue bit length"
attr unit b
vector 9 WirelessB.hostA.wlan[0].queue queueingTime:vector ETV
attr interpolationmode none
attr recordingmode vector
attr source queueingTime(packetPulled)
attr title "queueing times"
attr unit s
vector 10 WirelessB.hostA.wlan[0].queue incomingPacketLengths:vector ETV
attr interpolationmode none
attr recordingmode vector
attr source packetLength(packetPushStarted)
attr title "incoming packet lengths"
attr unit b
vector 11 WirelessB.hostA.wlan[0].queue incomingDataRate:vector ETV
attr interpolationmode linear
attr recordingmode vector
attr source throughput(packetPushStarted)
attr title "incoming datarate"
attr unit bps
vector 12 WirelessB.hostA.wlan[0].queue outgoingPacketLengths:vector ETV
attr interpolationmode none
attr recordingmode vector
attr source packetLength(packetPulled)
attr title "outgoing packet lengths"
attr unit b
vector 13 WirelessB.hostA.wlan[0].queue outgoingDataRate:vector ETV
attr interpolationmode linear
attr recordingmode vector
attr source throughput(packetPulled)
attr title "outgoing datarate"
attr unit bps
vector 14 WirelessB.hostA.wlan[0].queue droppedPacketLengthsQueueOverflow:vector ETV
attr interpolationmode none
attr recordingmode vector
attr source packetLength(packetDropReasonIsQueueOverflow(packetDropped))
attr title "dropped packet lengths: queue overflow"
attr unit b
vector 15 WirelessB.hostA.wlan[0].queue flowQueueingTime:vector ETV
attr interpolationmode none
attr recordingmode vector
attr source queueingTime(demuxFlow(packetPulled))
attr title "flow queueing times"
attr unit s
vector 16 WirelessB.hostA.wlan[0].queue flowIncomingDataRate:vector ETV
attr interpolationmode linear
attr recordingmode vector
attr source throughput(flowPacketLength(demuxFlow(packetPushStarted)))
attr title "flow specific incoming data rate"
attr unit bps
vector 17 WirelessB.hostA.wlan[0].queue flowOutgoingDataRate:vector ETV
attr interpolationmode linear
attr recordingmode vector
attr source throughput(flowPacketLength(demuxFlow(packetPulled)))
attr title "flow specific outgoing data rate"
attr unit bps
vector 18 WirelessB.hostA.wlan[0].mac packetDropIncorrectlyReceived:vector(packetBytes) ETV
attr interpolationmode none
attr recordingmode vector(packetBytes)
attr source packetDropReasonIsIncorrectlyReceived(packetDropped)
attr title "packet drop: incorrectly received, packetBytes"
vector 19 WirelessB.hostA.wlan[0].mac packetDropNotAddressedToUs:vector(packetBytes) ETV
attr interpolationmode none
attr recordingmode vector(packetBytes)
attr source packetDropReasonIsNotAddressedToUs(packetDropped)
attr title "packet drop: not addressed to us, packetBytes"
vector 20 WirelessB.hostA.wlan[0].mac packetDropQueueOverflow:vector(packetBytes) ETV
attr interpolationmode none
attr recordingmode vector(packetBytes)
attr source packetDropReasonIsQueueOverflow(packetDropped)
attr title "packet drop: queue overflow, packetBytes"
vector 21 WirelessB.hostA.wlan[0].mac packetDropRetryLimitReached:vector(packetBytes) ETV
attr interpolationmode none
attr recordingmode vector(packetBytes)
attr source packetDropReasonIsRetryLimitReached(packetDropped)
attr title "packet drop: retry limit reached, packetBytes"
vector 22 WirelessB.hostA.wlan[0].radio.energyConsumer powerConsumption:vector ETV
attr interpolationmode sample-hold
attr recordingmode vector
attr source powerConsumptionChanged
attr title "Power consumption"
attr unit W
vector 23 WirelessB.hostA.wlan[0].radio radioMode:vector ETV
attr interpolationmode sample-hold
attr recordingmode vector
attr source radioModeChanged
attr title "Radio mode"
vector 24 WirelessB.hostA.wlan[0].radio receptionState:vector ETV
attr interpolationmode sample-hold
attr recordingmode vector
attr source receptionStateChanged
attr title "Radio reception state"
vector 25 WirelessB.hostA.wlan[0].radio transmissionState:vector ETV
attr interpolationmode sample-hold
attr recordingmode vector
attr source transmissionStateChanged
attr title "Radio transmission state"
vector 26 WirelessB.hostA.wlan[0] packetDropInterfaceDown:vector(packetBytes) ETV
attr interpolationmode none
attr recordingmode vector(packetBytes)
attr source packetDropReasonIsInterfaceDown(packetDropped)
attr title "packet drops: interface down, packetBytes"
vector 27 WirelessB.hostA.wlan[0] packetDropNoCarrier:vector(packetBytes) ETV
attr interpolationmode none
attr recordingmode vector(packetBytes)
attr source packetDropReasonIsNoCarrier(packetDropped)
attr title "packet drops: no carrier, packetBytes"
vector 28 WirelessB.hostA.ipv4.ip packetDropAddressResolutionFailed:vector(packetBytes) ETV
attr interpolationmode none
attr recordingmode vector(packetBytes)
attr source packetDropReasonIsAddressResolutionFailed(packetDropped)
attr title "packet drop: address resolution failed, packetBytes"
vector 29 WirelessB.hostA.ipv4.ip packetDropHopLimitReached:vector(packetBytes) ETV
attr interpolationmode none
attr recordingmode vector(packetBytes)
attr source packetDropReasonIsHopLimitReached(packetDropped)
attr title "packet drop: hop limit reached, packetBytes"
vector 30 WirelessB.hostA.ipv4.ip packetDropForwardingDisabled:vector(packetBytes) ETV
attr interpolationmode none
attr recordingmode vector(packetBytes)
attr source packetDropReasonIsForwardingDisabled(packetDropped)
attr title "packet drop: forwarding disabled, packetBytes"
vector 31 WirelessB.hostA.ipv4.ip packetDropNoInterfaceFound:vector(packetBytes) ETV
attr interpolationmode none
attr recordingmode vector(packetBytes)
attr source packetDropReasonIsNoInterfaceFound(packetDropped)
attr title "packet drop: no interface found, packetBytes"
vector 32 WirelessB.hostA.ipv4.ip packetDropNoRouteFound:vector(packetBytes) ETV
attr interpolationmode none
attr recordingmode vector(packetBytes)
attr source packetDropReasonIsNoRouteFound(packetDropped)
attr title "packet drop: no route found, packetBytes"
vector 33 WirelessB.hostA.ipv4.ip packetDropUndefined:vector(packetBytes) ETV
attr interpolationmode none
attr recordingmode vector(packetBytes)
attr source packetDropReasonIsUndefined(packetDropped)
attr title "packet drop: undefined, packetBytes"
vector 34 WirelessB.hostA.udp packetSent:vector(packetBytes) ETV
attr interpolationmode none
attr recordingmode vector(packetBytes)
attr source packetSent
attr title "packets sent, packetBytes"
vector 35 WirelessB.hostA.udp packetReceived:vector(packetBytes) ETV
attr interpolationmode none
attr recordingmode vector(packetBytes)
attr source packetReceived
attr title "packets received, packetBytes"
vector 36 WirelessB.hostA.udp passedUpPk:vector(count) ETV
attr interpolationmode none
attr recordingmode vector(count)
attr source packetSentToUpper
attr title "packets passed up, count"
vector 37 WirelessB.hostA.udp droppedPkWrongPort:vector(count) ETV
attr interpolationmode none
attr recordingmode vector(count)
attr source packetDropReasonIsNoPortFound(packetDropped)
attr title "packets dropped (wrong port), count"
vector 38 WirelessB.hostA.udp droppedPkBadChecksum:vector(count) ETV
attr interpolationmode none
attr recordingmode vector(count)
attr source packetDropReasonIsIncorrectlyReceived(packetDropped)
attr title "packets dropped (checksum error), count"
vector 39 WirelessB.hostA.app[0] packetReceived:vector(packetBytes) ETV
attr interpolationmode none
attr recordingmode vector(packetBytes)
attr source packetReceived
attr title "packets received, packetBytes"
vector 40 WirelessB.hostA.app[0] throughput:vector ETV
attr recordingmode vector
attr source throughput(packetReceived)
attr title throughput
attr unit bps
vector 41 WirelessB.hostA.app[0] packetSent:vector(packetBytes) ETV
attr interpolationmode none
attr recordingmode vector(packetBytes)
attr source packetSent
attr title "packets sent, packetBytes"
vector 42 WirelessB.hostA.app[0] rcvdPkLifetime:vector ETV
attr interpolationmode none
attr recordingmode vector
attr source dataAge(packetReceived)
attr title "received packet lifetime"
attr unit s
vector 43 WirelessB.hostA.app[0] rcvdPkSeqNo:vector ETV
attr interpolationmode none
attr recordingmode vector
attr source appPkSeqNo(packetReceived)
attr title "received packet sequence number"
vector 44 WirelessB.hostB.energyStorage powerConsumption:vector ETV
attr interpolationmode sample-hold
attr recordingmode vector
attr source powerConsumptionChanged
attr title "Power consumption"
attr unit W
vector 45 WirelessB.hostB.energyStorage powerGeneration:vector ETV
attr interpolationmode sample-hold
attr recordingmode vector
attr source powerGenerationChanged
attr title "Power generation"
attr unit W
vector 46 WirelessB.hostB.energyStorage residualEnergyCapacity:vector ETV
attr interpolationmode linear
attr recordingmode vector
attr source residualEnergyCapacityChanged
attr title "Residual energy capacity"
attr unit J
vector 47 WirelessB.hostB.lo[0].lo rcvdPkFromHl:vector(packetBytes) ETV
attr interpolationmode none
attr recordingmode vector(packetBytes)
attr source packetReceivedFromUpper
attr title "packets received from higher layer, packetBytes"
vector 48 WirelessB.hostB.lo[0].lo passedUpPk:vector(packetBytes) ETV
attr interpolationmode none
attr recordingmode vector(packetBytes)
attr source packetSentToUpper
attr title "packets passed to higher layer, packetBytes"
vector 49 WirelessB.hostB.lo[0] packetDropInterfaceDown:vector(packetBytes) ETV
attr interpolationmode none
attr recordingmode vector(packetBytes)
attr source packetDropReasonIsInterfaceDown(packetDropped)
attr title "packet drops: interface down, packetBytes"
vector 50 WirelessB.hostB.lo[0] packetDropNoCarrier:vector(packetBytes) ETV
attr interpolationmode none
attr recordingmode vector(packetBytes)
attr source packetDropReasonIsNoCarrier(packetDropped)
attr title "packet drops: no carrier, packetBytes"
vector 51 WirelessB.hostB.wlan[0].queue queueLength:vector ETV
attr autoWarmupFilter false
attr interpolationmode sample-hold
attr recordingmode vector
attr source "warmup(atomic(constant0(packetPushEnded) + count(packetPushStarted) - count(packetPulled) - count(packetRemoved) - count(packetDropped)))"
attr title "queue length"
attr unit pk
vector 52 WirelessB.hostB.wlan[0].queue queueBitLength:vector ETV
attr autoWarmupFilter false
attr interpolationmode sample-hold
attr recordingmode vector
attr source "warmup(atomic(constant0(packetPushEnded) + sum(packetLength(packetPushStarted)) - sum(packetLength(packetPulled)) - sum(packetLength(packetRemoved)) - sum(packetLength(packetDropped))))"
attr title "queue bit length"
attr unit b
vector 53 WirelessB.hostB.wlan[0].queue queueingTime:vector ETV
attr interpolationmode none
attr recordingmode vector
attr source queueingTime(packetPulled)
attr title "queueing times"
attr unit s
vector 54 WirelessB.hostB.wlan[0].queue incomingPacketLengths:vector ETV
attr interpolationmode none
attr recordingmode vector
attr source packetLength(packetPushStarted)
attr title "incoming packet lengths"
attr unit b
vector 55 WirelessB.hostB.wlan[0].queue incomingDataRate:vector ETV
attr interpolationmode linear
attr recordingmode vector
attr source throughput(packetPushStarted)
attr title "incoming datarate"
attr unit bps
vector 56 WirelessB.hostB.wlan[0].queue outgoingPacketLengths:vector ETV
attr interpolationmode none
attr recordingmode vector
attr source packetLength(packetPulled)
attr title "outgoing packet lengths"
attr unit b
vector 57 WirelessB.hostB.wlan[0].queue outgoingDataRate:vector ETV
attr interpolationmode linear
attr recordingmode vector
attr source throughput(packetPulled)
attr title "outgoing datarate"
attr unit bps
vector 58 WirelessB.hostB.wlan[0].queue droppedPacketLengthsQueueOverflow:vector ETV
attr interpolationmode none
attr recordingmode vector
attr source packetLength(packetDropReasonIsQueueOverflow(packetDropped))
attr title "dropped packet lengths: queue overflow"
attr unit b
vector 59 WirelessB.hostB.wlan[0].queue flowQueueingTime:vector ETV
attr interpolationmode none
attr recordingmode vector
attr source queueingTime(demuxFlow(packetPulled))
attr title "flow queueing times"
attr unit s
vector 60 WirelessB.hostB.wlan[0].queue flowIncomingDataRate:vector ETV
attr interpolationmode linear
attr recordingmode vector
attr source throughput(flowPacketLength(demuxFlow(packetPushStarted)))
attr title "flow specific incoming data rate"
attr unit bps
vector 61 WirelessB.hostB.wlan[0].queue flowOutgoingDataRate:vector ETV
attr interpolationmode linear
attr recordingmode vector
attr source throughput(flowPacketLength(demuxFlow(packetPulled)))
attr title "flow specific outgoing data rate"
attr unit bps
vector 62 WirelessB.hostB.wlan[0].mac packetDropIncorrectlyReceived:vector(packetBytes) ETV
attr interpolationmode none
attr recordingmode vector(packetBytes)
attr source packetDropReasonIsIncorrectlyReceived(packetDropped)
attr title "packet drop: incorrectly received, packetBytes"
vector 63 WirelessB.hostB.wlan[0].mac packetDropNotAddressedToUs:vector(packetBytes) ETV
attr interpolationmode none
attr recordingmode vector(packetBytes)
attr source packetDropReasonIsNotAddressedToUs(packetDropped)
attr title "packet drop: not addressed to us, packetBytes"
vector 64 WirelessB.hostB.wlan[0].mac packetDropQueueOverflow:vector(packetBytes) ETV
attr interpolationmode none
attr recordingmode vector(packetBytes)
attr source packetDropReasonIsQueueOverflow(packetDropped)
attr title "packet drop: queue overflow, packetBytes"
vector 65 WirelessB.hostB.wlan[0].mac packetDropRetryLimitReached:vector(packetBytes) ETV
attr interpolationmode none
attr recordingmode vector(packetBytes)
attr source packetDropReasonIsRetryLimitReached(packetDropped)
attr title "packet drop: retry limit reached, packetBytes"
vector 66 WirelessB.hostB.wlan[0].radio.energyConsumer powerConsumption:vector ETV
attr interpolationmode sample-hold
attr recordingmode vector
attr source powerConsumptionChanged
attr title "Power consumption"
attr unit W
vector 67 WirelessB.hostB.wlan[0].radio radioMode:vector ETV
attr interpolationmode sample-hold
attr recordingmode vector
attr source radioModeChanged
attr title "Radio mode"
vector 68 WirelessB.hostB.wlan[0].radio receptionState:vector ETV
attr interpolationmode sample-hold
attr recordingmode vector
attr source receptionStateChanged
attr title "Radio reception state"
vector 69 WirelessB.hostB.wlan[0].radio transmissionState:vector ETV
attr interpolationmode sample-hold
attr recordingmode vector
attr source transmissionStateChanged
attr title "Radio transmission state"
vector 70 WirelessB.hostB.wlan[0] packetDropInterfaceDown:vector(packetBytes) ETV
attr interpolationmode none
attr recordingmode vector(packetBytes)
attr source packetDropReasonIsInterfaceDown(packetDropped)
attr title "packet drops: interface down, packetBytes"
vector 71 WirelessB.hostB.wlan[0] packetDropNoCarrier:vector(packetBytes) ETV
attr interpolationmode none
attr recordingmode vector(packetBytes)
attr source packetDropReasonIsNoCarrier(packetDropped)
attr title "packet drops: no carrier, packetBytes"
vector 72 WirelessB.hostB.ipv4.ip packetDropAddressResolutionFailed:vector(packetBytes) ETV
attr interpolationmode none
attr recordingmode vector(packetBytes)
attr source packetDropReasonIsAddressResolutionFailed(packetDropped)
attr title "packet drop: address resolution failed, packetBytes"
vector 73 WirelessB.hostB.ipv4.ip packetDropHopLimitReached:vector(packetBytes) ETV
attr interpolationmode none
attr recordingmode vector(packetBytes)
attr source packetDropReasonIsHopLimitReached(packetDropped)
attr title "packet drop: hop limit reached, packetBytes"
vector 74 WirelessB.hostB.ipv4.ip packetDropForwardingDisabled:vector(packetBytes) ETV
attr interpolationmode none
attr recordingmode vector(packetBytes)
attr source packetDropReasonIsForwardingDisabled(packetDropped)
attr title "packet drop: forwarding disabled, packetBytes"
vector 75 WirelessB.hostB.ipv4.ip packetDropNoInterfaceFound:vector(packetBytes) ETV
attr interpolationmode none
attr recordingmode vector(packetBytes)
attr source packetDropReasonIsNoInterfaceFound(packetDropped)
attr title "packet drop: no interface found, packetBytes"
vector 76 WirelessB.hostB.ipv4.ip packetDropNoRouteFound:vector(packetBytes) ETV
attr interpolationmode none
attr recordingmode vector(packetBytes)
attr source packetDropReasonIsNoRouteFound(packetDropped)
attr title "packet drop: no route found, packetBytes"
vector 77 WirelessB.hostB.ipv4.ip packetDropUndefined:vector(packetBytes) ETV
attr interpolationmode none
attr recordingmode vector(packetBytes)
attr source packetDropReasonIsUndefined(packetDropped)
attr title "packet drop: undefined, packetBytes"
vector 78 WirelessB.hostB.udp packetSent:vector(packetBytes) ETV
attr interpolationmode none
attr recordingmode vector(packetBytes)
attr source packetSent
attr title "packets sent, packetBytes"
vector 79 WirelessB.hostB.udp packetReceived:vector(packetBytes) ETV
attr interpolationmode none
attr recordingmode vector(packetBytes)
attr source packetReceived
attr title "packets received, packetBytes"
vector 80 WirelessB.hostB.udp passedUpPk:vector(count) ETV
attr interpolationmode none
attr recordingmode vector(count)
attr source packetSentToUpper
attr title "packets passed up, count"
vector 81 WirelessB.hostB.udp droppedPkWrongPort:vector(count) ETV
attr interpolationmode none
attr recordingmode vector(count)
attr source packetDropReasonIsNoPortFound(packetDropped)
attr title "packets dropped (wrong port), count"
vector 82 WirelessB.hostB.udp droppedPkBadChecksum:vector(count) ETV
attr interpolationmode none
attr recordingmode vector(count)
attr source packetDropReasonIsIncorrectlyReceived(packetDropped)
attr title "packets dropped (checksum error), count"
vector 83 WirelessB.hostB.app[0] packetReceived:vector(packetBytes) ETV
attr interpolationmode none
attr recordingmode vector(packetBytes)
attr source packetReceived
attr title "packets received, packetBytes"
vector 84 WirelessB.hostB.app[0] throughput:vector ETV
attr recordingmode vector
attr source throughput(packetReceived)
attr title throughput
attr unit bps
vector 85 WirelessB.hostB.app[0] endToEndDelay:vector ETV
attr interpolationmode none
attr recordingmode vector
attr source dataAge(packetReceived)
attr title "end-to-end delay"
attr unit s
vector 86 WirelessB.hostB.app[0] rcvdPkSeqNo:vector ETV
attr interpolationmode none
attr recordingmode vector
attr source appPkSeqNo(packetReceived)
attr title "received packet sequence number"
vector 87 WirelessB.hostR1.energyStorage powerConsumption:vector ETV
attr interpolationmode sample-hold
attr recordingmode vector
attr source powerConsumptionChanged
attr title "Power consumption"
attr unit W
vector 88 WirelessB.hostR1.energyStorage powerGeneration:vector ETV
attr interpolationmode sample-hold
attr recordingmode vector
attr source powerGenerationChanged
attr title "Power generation"
attr unit W
vector 89 WirelessB.hostR1.energyStorage residualEnergyCapacity:vector ETV
attr interpolationmode linear
attr recordingmode vector
attr source residualEnergyCapacityChanged
attr title "Residual energy capacity"
attr unit J
vector 90 WirelessB.hostR1.lo[0].lo rcvdPkFromHl:vector(packetBytes) ETV
attr interpolationmode none
attr recordingmode vector(packetBytes)
attr source packetReceivedFromUpper
attr title "packets received from higher layer, packetBytes"
vector 91 WirelessB.hostR1.lo[0].lo passedUpPk:vector(packetBytes) ETV
attr interpolationmode none
attr recordingmode vector(packetBytes)
attr source packetSentToUpper
attr title "packets passed to higher layer, packetBytes"
vector 92 WirelessB.hostR1.lo[0] packetDropInterfaceDown:vector(packetBytes) ETV
attr interpolationmode none
attr recordingmode vector(packetBytes)
attr source packetDropReasonIsInterfaceDown(packetDropped)
attr title "packet drops: interface down, packetBytes"
vector 93 WirelessB.hostR1.lo[0] packetDropNoCarrier:vector(packetBytes) ETV
attr interpolationmode none
attr recordingmode vector(packetBytes)
attr source packetDropReasonIsNoCarrier(packetDropped)
attr title "packet drops: no carrier, packetBytes"
vector 94 WirelessB.hostR1.wlan[0].queue queueLength:vector ETV
attr autoWarmupFilter false
attr interpolationmode sample-hold
attr recordingmode vector
attr source "warmup(atomic(constant0(packetPushEnded) + count(packetPushStarted) - count(packetPulled) - count(packetRemoved) - count(packetDropped)))"
attr title "queue length"
attr unit pk
vector 95 WirelessB.hostR1.wlan[0].queue queueBitLength:vector ETV
attr autoWarmupFilter false
attr interpolationmode sample-hold
attr recordingmode vector
attr source "warmup(atomic(constant0(packetPushEnded) + sum(packetLength(packetPushStarted)) - sum(packetLength(packetPulled)) - sum(packetLength(packetRemoved)) - sum(packetLength(packetDropped))))"
attr title "queue bit length"
attr unit b
vector 96 WirelessB.hostR1.wlan[0].queue queueingTime:vector ETV
attr interpolationmode none
attr recordingmode vector
attr source queueingTime(packetPulled)
attr title "queueing times"
attr unit s
vector 97 WirelessB.hostR1.wlan[0].queue incomingPacketLengths:vector ETV
attr interpolationmode none
attr recordingmode vector
attr source packetLength(packetPushStarted)
attr title "incoming packet lengths"
attr unit b
vector 98 WirelessB.hostR1.wlan[0].queue incomingDataRate:vector ETV
attr interpolationmode linear
attr recordingmode vector
attr source throughput(packetPushStarted)
attr title "incoming datarate"
attr unit bps
vector 99 WirelessB.hostR1.wlan[0].queue outgoingPacketLengths:vector ETV
attr interpolationmode none
attr recordingmode vector
attr source packetLength(packetPulled)
attr title "outgoing packet lengths"
attr unit b
vector 100 WirelessB.hostR1.wlan[0].queue outgoingDataRate:vector ETV
attr interpolationmode linear
attr recordingmode vector
attr source throughput(packetPulled)
attr title "outgoing datarate"
attr unit bps
vector 101 WirelessB.hostR1.wlan[0].queue droppedPacketLengthsQueueOverflow:vector ETV
attr interpolationmode none
attr recordingmode vector
attr source packetLength(packetDropReasonIsQueueOverflow(packetDropped))
attr title "dropped packet lengths: queue overflow"
attr unit b
vector 102 WirelessB.hostR1.wlan[0].queue flowQueueingTime:vector ETV
attr interpolationmode none
attr recordingmode vector
attr source queueingTime(demuxFlow(packetPulled))
attr title "flow queueing times"
attr unit s
vector 103 WirelessB.hostR1.wlan[0].queue flowIncomingDataRate:vector ETV
attr interpolationmode linear
attr recordingmode vector
attr source throughput(flowPacketLength(demuxFlow(packetPushStarted)))
attr title "flow specific incoming data rate"
attr unit bps
vector 104 WirelessB.hostR1.wlan[0].queue flowOutgoingDataRate:vector ETV
attr interpolationmode linear
attr recordingmode vector
attr source throughput(flowPacketLength(demuxFlow(packetPulled)))
attr title "flow specific outgoing data rate"
attr unit bps
vector 105 WirelessB.hostR1.wlan[0].mac packetDropIncorrectlyReceived:vector(packetBytes) ETV
attr interpolationmode none
attr recordingmode vector(packetBytes)
attr source packetDropReasonIsIncorrectlyReceived(packetDropped)
attr title "packet drop: incorrectly received, packetBytes"
vector 106 WirelessB.hostR1.wlan[0].mac packetDropNotAddressedToUs:vector(packetBytes) ETV
attr interpolationmode none
attr recordingmode vector(packetBytes)
attr source packetDropReasonIsNotAddressedToUs(packetDropped)
attr title "packet drop: not addressed to us, packetBytes"
vector 107 WirelessB.hostR1.wlan[0].mac packetDropQueueOverflow:vector(packetBytes) ETV
attr interpolationmode none
attr recordingmode vector(packetBytes)
attr source packetDropReasonIsQueueOverflow(packetDropped)
attr title "packet drop: queue overflow, packetBytes"
vector 108 WirelessB.hostR1.wlan[0].mac packetDropRetryLimitReached:vector(packetBytes) ETV
attr interpolationmode none
attr recordingmode vector(packetBytes)
attr source packetDropReasonIsRetryLimitReached(packetDropped)
attr title "packet drop: retry limit reached, packetBytes"
vector 109 WirelessB.hostR1.wlan[0].radio.energyConsumer powerConsumption:vector ETV
attr interpolationmode sample-hold
attr recordingmode vector
attr source powerConsumptionChanged
attr title "Power consumption"
attr unit W
vector 110 WirelessB.hostR1.wlan[0].radio radioMode:vector ETV
attr interpolationmode sample-hold
attr recordingmode vector
attr source radioModeChanged
attr title "Radio mode"
vector 111 WirelessB.hostR1.wlan[0].radio receptionState:vector ETV
attr interpolationmode sample-hold
attr recordingmode vector
attr source receptionStateChanged
attr title "Radio reception state"
vector 112 WirelessB.hostR1.wlan[0].radio transmissionState:vector ETV
attr interpolationmode sample-hold
attr recordingmode vector
attr source transmissionStateChanged
attr title "Radio transmission state"
vector 113 WirelessB.hostR1.wlan[0] packetDropInterfaceDown:vector(packetBytes) ETV
attr interpolationmode none
attr recordingmode vector(packetBytes)
attr source packetDropReasonIsInterfaceDown(packetDropped)
attr title "packet drops: interface down, packetBytes"
vector 114 WirelessB.hostR1.wlan[0] packetDropNoCarrier:vector(packetBytes) ETV
attr interpolationmode none
attr recordingmode vector(packetBytes)
attr source packetDropReasonIsNoCarrier(packetDropped)
attr title "packet drops: no carrier, packetBytes"
vector 115 WirelessB.hostR1.ipv4.ip packetDropAddressResolutionFailed:vector(packetBytes) ETV
attr interpolationmode none
attr recordingmode vector(packetBytes)
attr source packetDropReasonIsAddressResolutionFailed(packetDropped)
attr title "packet drop: address resolution failed, packetBytes"
vector 116 WirelessB.hostR1.ipv4.ip packetDropHopLimitReached:vector(packetBytes) ETV
attr interpolationmode none
attr recordingmode vector(packetBytes)
attr source packetDropReasonIsHopLimitReached(packetDropped)
attr title "packet drop: hop limit reached, packetBytes"
vector 117 WirelessB.hostR1.ipv4.ip packetDropForwardingDisabled:vector(packetBytes) ETV
attr interpolationmode none
attr recordingmode vector(packetBytes)
attr source packetDropReasonIsForwardingDisabled(packetDropped)
attr title "packet drop: forwarding disabled, packetBytes"
vector 118 WirelessB.hostR1.ipv4.ip packetDropNoInterfaceFound:vector(packetBytes) ETV
attr interpolationmode none
attr recordingmode vector(packetBytes)
attr source packetDropReasonIsNoInterfaceFound(packetDropped)
attr title "packet drop: no interface found, packetBytes"
vector 119 WirelessB.hostR1.ipv4.ip packetDropNoRouteFound:vector(packetBytes) ETV
attr interpolationmode none
attr recordingmode vector(packetBytes)
attr source packetDropReasonIsNoRouteFound(packetDropped)
attr title "packet drop: no route found, packetBytes"
vector 120 WirelessB.hostR1.ipv4.ip packetDropUndefined:vector(packetBytes) ETV
attr interpolationmode none
attr recordingmode vector(packetBytes)
attr source packetDropReasonIsUndefined(packetDropped)
attr title "packet drop: undefined, packetBytes"
vector 121 WirelessB.hostR1.udp packetSent:vector(packetBytes) ETV
attr interpolationmode none
attr recordingmode vector(packetBytes)
attr source packetSent
attr title "packets sent, packetBytes"
vector 122 WirelessB.hostR1.udp packetReceived:vector(packetBytes) ETV
attr interpolationmode none
attr recordingmode vector(packetBytes)
attr source packetReceived
attr title "packets received, packetBytes"
vector 123 WirelessB.hostR1.udp passedUpPk:vector(count) ETV
attr interpolationmode none
attr recordingmode vector(count)
attr source packetSentToUpper
attr title "packets passed up, count"
vector 124 WirelessB.hostR1.udp droppedPkWrongPort:vector(count) ETV
attr interpolationmode none
attr recordingmode vector(count)
attr source packetDropReasonIsNoPortFound(packetDropped)
attr title "packets dropped (wrong port), count"
vector 125 WirelessB.hostR1.udp droppedPkBadChecksum:vector(count) ETV
attr interpolationmode none
attr recordingmode vector(count)
attr source packetDropReasonIsIncorrectlyReceived(packetDropped)
attr title "packets dropped (checksum error), count"
vector 126 WirelessB.hostR2.energyStorage powerConsumption:vector ETV
attr interpolationmode sample-hold
attr recordingmode vector
attr source powerConsumptionChanged
attr title "Power consumption"
attr unit W
vector 127 WirelessB.hostR2.energyStorage powerGeneration:vector ETV
attr interpolationmode sample-hold
attr recordingmode vector
attr source powerGenerationChanged
attr title "Power generation"
attr unit W
vector 128 WirelessB.hostR2.energyStorage residualEnergyCapacity:vector ETV
attr interpolationmode linear
attr recordingmode vector
attr source residualEnergyCapacityChanged
attr title "Residual energy capacity"
attr unit J
vector 129 WirelessB.hostR2.lo[0].lo rcvdPkFromHl:vector(packetBytes) ETV
attr interpolationmode none
attr recordingmode vector(packetBytes)
attr source packetReceivedFromUpper
attr title "packets received from higher layer, packetBytes"
vector 130 WirelessB.hostR2.lo[0].lo passedUpPk:vector(packetBytes) ETV
attr interpolationmode none
attr recordingmode vector(packetBytes)
attr source packetSentToUpper
attr title "packets passed to higher layer, packetBytes"
vector 131 WirelessB.hostR2.lo[0] packetDropInterfaceDown:vector(packetBytes) ETV
attr interpolationmode none
attr recordingmode vector(packetBytes)
attr source packetDropReasonIsInterfaceDown(packetDropped)
attr title "packet drops: interface down, packetBytes"
vector 132 WirelessB.hostR2.lo[0] packetDropNoCarrier:vector(packetBytes) ETV
attr interpolationmode none
attr recordingmode vector(packetBytes)
attr source packetDropReasonIsNoCarrier(packetDropped)
attr title "packet drops: no carrier, packetBytes"
vector 133 WirelessB.hostR2.wlan[0].queue queueLength:vector ETV
attr autoWarmupFilter false
attr interpolationmode sample-hold
attr recordingmode vector
attr source "warmup(atomic(constant0(packetPushEnded) + count(packetPushStarted) - count(packetPulled) - count(packetRemoved) - count(packetDropped)))"
attr title "queue length"
attr unit pk
vector 134 WirelessB.hostR2.wlan[0].queue queueBitLength:vector ETV
attr autoWarmupFilter false
attr interpolationmode sample-hold
attr recordingmode vector
attr source "warmup(atomic(constant0(packetPushEnded) + sum(packetLength(packetPushStarted)) - sum(packetLength(packetPulled)) - sum(packetLength(packetRemoved)) - sum(packetLength(packetDropped))))"
attr title "queue bit length"
attr unit b
vector 135 WirelessB.hostR2.wlan[0].queue queueingTime:vector ETV
attr interpolationmode none
attr recordingmode vector
attr source queueingTime(packetPulled)
attr title "queueing times"
attr unit s
vector 136 WirelessB.hostR2.wlan[0].queue incomingPacketLengths:vector ETV
attr interpolationmode none
attr recordingmode vector
attr source packetLength(packetPushStarted)
attr title "incoming packet lengths"
attr unit b
vector 137 WirelessB.hostR2.wlan[0].queue incomingDataRate:vector ETV
attr interpolationmode linear
attr recordingmode vector
attr source throughput(packetPushStarted)
attr title "incoming datarate"
attr unit bps
vector 138 WirelessB.hostR2.wlan[0].queue outgoingPacketLengths:vector ETV
attr interpolationmode none
attr recordingmode vector
attr source packetLength(packetPulled)
attr title "outgoing packet lengths"
attr unit b
vector 139 WirelessB.hostR2.wlan[0].queue outgoingDataRate:vector ETV
attr interpolationmode linear
attr recordingmode vector
attr source throughput(packetPulled)
attr title "outgoing datarate"
attr unit bps
vector 140 WirelessB.hostR2.wlan[0].queue droppedPacketLengthsQueueOverflow:vector ETV
attr interpolationmode none
attr recordingmode vector
attr source packetLength(packetDropReasonIsQueueOverflow(packetDropped))
attr title "dropped packet lengths: queue overflow"
attr unit b
vector 141 WirelessB.hostR2.wlan[0].queue flowQueueingTime:vector ETV
attr interpolationmode none
attr recordingmode vector
attr source queueingTime(demuxFlow(packetPulled))
attr title "flow queueing times"
attr unit s
vector 142 WirelessB.hostR2.wlan[0].queue flowIncomingDataRate:vector ETV
attr interpolationmode linear
attr recordingmode vector
attr source throughput(flowPacketLength(demuxFlow(packetPushStarted)))
attr title "flow specific incoming data rate"
attr unit bps
vector 143 WirelessB.hostR2.wlan[0].queue flowOutgoingDataRate:vector ETV
attr interpolationmode linear
attr recordingmode vector
attr source throughput(flowPacketLength(demuxFlow(packetPulled)))
attr title "flow specific outgoing data rate"
attr unit bps
vector 144 WirelessB.hostR2.wlan[0].mac packetDropIncorrectlyReceived:vector(packetBytes) ETV
attr interpolationmode none
attr recordingmode vector(packetBytes)
attr source packetDropReasonIsIncorrectlyReceived(packetDropped)
attr title "packet drop: incorrectly received, packetBytes"
vector 145 WirelessB.hostR2.wlan[0].mac packetDropNotAddressedToUs:vector(packetBytes) ETV
attr interpolationmode none
attr recordingmode vector(packetBytes)
attr source packetDropReasonIsNotAddressedToUs(packetDropped)
attr title "packet drop: not addressed to us, packetBytes"
vector 146 WirelessB.hostR2.wlan[0].mac packetDropQueueOverflow:vector(packetBytes) ETV
attr interpolationmode none
attr recordingmode vector(packetBytes)
attr source packetDropReasonIsQueueOverflow(packetDropped)
attr title "packet drop: queue overflow, packetBytes"
vector 147 WirelessB.hostR2.wlan[0].mac packetDropRetryLimitReached:vector(packetBytes) ETV
attr interpolationmode none
attr recordingmode vector(packetBytes)
attr source packetDropReasonIsRetryLimitReached(packetDropped)
attr title "packet drop: retry limit reached, packetBytes"
vector 148 WirelessB.hostR2.wlan[0].radio.energyConsumer powerConsumption:vector ETV
attr interpolationmode sample-hold
attr recordingmode vector
attr source powerConsumptionChanged
attr title "Power consumption"
attr unit W
vector 149 WirelessB.hostR2.wlan[0].radio radioMode:vector ETV
attr interpolationmode sample-hold
attr recordingmode vector
attr source radioModeChanged
attr title "Radio mode"
vector 150 WirelessB.hostR2.wlan[0].radio receptionState:vector ETV
attr interpolationmode sample-hold
attr recordingmode vector
attr source receptionStateChanged
attr title "Radio reception state"
vector 151 WirelessB.hostR2.wlan[0].radio transmissionState:vector ETV
attr interpolationmode sample-hold
attr recordingmode vector
attr source transmissionStateChanged
attr title "Radio transmission state"
vector 152 WirelessB.hostR2.wlan[0] packetDropInterfaceDown:vector(packetBytes) ETV
attr interpolationmode none
attr recordingmode vector(packetBytes)
attr source packetDropReasonIsInterfaceDown(packetDropped)
attr title "packet drops: interface down, packetBytes"
vector 153 WirelessB.hostR2.wlan[0] packetDropNoCarrier:vector(packetBytes) ETV
attr interpolationmode none
attr recordingmode vector(packetBytes)
attr source packetDropReasonIsNoCarrier(packetDropped)
attr title "packet drops: no carrier, packetBytes"
vector 154 WirelessB.hostR2.ipv4.ip packetDropAddressResolutionFailed:vector(packetBytes) ETV
attr interpolationmode none
attr recordingmode vector(packetBytes)
attr source packetDropReasonIsAddressResolutionFailed(packetDropped)
attr title "packet drop: address resolution failed, packetBytes"
vector 155 WirelessB.hostR2.ipv4.ip packetDropHopLimitReached:vector(packetBytes) ETV
attr interpolationmode none
attr recordingmode vector(packetBytes)
attr source packetDropReasonIsHopLimitReached(packetDropped)
attr title "packet drop: hop limit reached, packetBytes"
vector 156 WirelessB.hostR2.ipv4.ip packetDropForwardingDisabled:vector(packetBytes) ETV
attr interpolationmode none
attr recordingmode vector(packetBytes)
attr source packetDropReasonIsForwardingDisabled(packetDropped)
attr title "packet drop: forwarding disabled, packetBytes"
vector 157 WirelessB.hostR2.ipv4.ip packetDropNoInterfaceFound:vector(packetBytes) ETV
attr interpolationmode none
attr recordingmode vector(packetBytes)
attr source packetDropReasonIsNoInterfaceFound(packetDropped)
attr title "packet drop: no interface found, packetBytes"
vector 158 WirelessB.hostR2.ipv4.ip packetDropNoRouteFound:vector(packetBytes) ETV
attr interpolationmode none
attr recordingmode vector(packetBytes)
attr source packetDropReasonIsNoRouteFound(packetDropped)
attr title "packet drop: no route found, packetBytes"
vector 159 WirelessB.hostR2.ipv4.ip packetDropUndefined:vector(packetBytes) ETV
attr interpolationmode none
attr recordingmode vector(packetBytes)
attr source packetDropReasonIsUndefined(packetDropped)
attr title "packet drop: undefined, packetBytes"
vector 160 WirelessB.hostR2.udp packetSent:vector(packetBytes) ETV
attr interpolationmode none
attr recordingmode vector(packetBytes)
attr source packetSent
attr title "packets sent, packetBytes"
vector 161 WirelessB.hostR2.udp packetReceived:vector(packetBytes) ETV
attr interpolationmode none
attr recordingmode vector(packetBytes)
attr source packetReceived
attr title "packets received, packetBytes"
vector 162 WirelessB.hostR2.udp passedUpPk:vector(count) ETV
attr interpolationmode none
attr recordingmode vector(count)
attr source packetSentToUpper
attr title "packets passed up, count"
vector 163 WirelessB.hostR2.udp droppedPkWrongPort:vector(count) ETV
attr interpolationmode none
attr recordingmode vector(count)
attr source packetDropReasonIsNoPortFound(packetDropped)
attr title "packets dropped (wrong port), count"
vector 164 WirelessB.hostR2.udp droppedPkBadChecksum:vector(count) ETV
attr interpolationmode none
attr recordingmode vector(count)
attr source packetDropReasonIsIncorrectlyReceived(packetDropped)
attr title "packets dropped (checksum error), count"
vector 165 WirelessB.hostR3.energyStorage powerConsumption:vector ETV
attr interpolationmode sample-hold
attr recordingmode vector
attr source powerConsumptionChanged
attr title "Power consumption"
attr unit W
vector 166 WirelessB.hostR3.energyStorage powerGeneration:vector ETV
attr interpolationmode sample-hold
attr recordingmode vector
attr source powerGenerationChanged
attr title "Power generation"
attr unit W
vector 167 WirelessB.hostR3.energyStorage residualEnergyCapacity:vector ETV
attr interpolationmode linear
attr recordingmode vector
attr source residualEnergyCapacityChanged
attr title "Residual energy capacity"
attr unit J
vector 168 WirelessB.hostR3.lo[0].lo rcvdPkFromHl:vector(packetBytes) ETV
attr interpolationmode none
attr recordingmode vector(packetBytes)
attr source packetReceivedFromUpper
attr title "packets received from higher layer, packetBytes"
vector 169 WirelessB.hostR3.lo[0].lo passedUpPk:vector(packetBytes) ETV
attr interpolationmode none
attr recordingmode vector(packetBytes)
attr source packetSentToUpper
attr title "packets passed to higher layer, packetBytes"
vector 170 WirelessB.hostR3.lo[0] packetDropInterfaceDown:vector(packetBytes) ETV
attr interpolationmode none
attr recordingmode vector(packetBytes)
attr source packetDropReasonIsInterfaceDown(packetDropped)
attr title "packet drops: interface down, packetBytes"
vector 171 WirelessB.hostR3.lo[0] packetDropNoCarrier:vector(packetBytes) ETV
attr interpolationmode none
attr recordingmode vector(packetBytes)
attr source packetDropReasonIsNoCarrier(packetDropped)
attr title "packet drops: no carrier, packetBytes"
vector 172 WirelessB.hostR3.wlan[0].queue queueLength:vector ETV
attr autoWarmupFilter false
attr interpolationmode sample-hold
attr recordingmode vector
attr source "warmup(atomic(constant0(packetPushEnded) + count(packetPushStarted) - count(packetPulled) - count(packetRemoved) - count(packetDropped)))"
attr title "queue length"
attr unit pk
vector 173 WirelessB.hostR3.wlan[0].queue queueBitLength:vector ETV
attr autoWarmupFilter false
attr interpolationmode sample-hold
attr recordingmode vector
attr source "warmup(atomic(constant0(packetPushEnded) + sum(packetLength(packetPushStarted)) - sum(packetLength(packetPulled)) - sum(packetLength(packetRemoved)) - sum(packetLength(packetDropped))))"
attr title "queue bit length"
attr unit b
vector 174 WirelessB.hostR3.wlan[0].queue queueingTime:vector ETV
attr interpolationmode none
attr recordingmode vector
attr source queueingTime(packetPulled)
attr title "queueing times"
attr unit s
vector 175 WirelessB.hostR3.wlan[0].queue incomingPacketLengths:vector ETV
attr interpolationmode none
attr recordingmode vector
attr source packetLength(packetPushStarted)
attr title "incoming packet lengths"
attr unit b
vector 176 WirelessB.hostR3.wlan[0].queue incomingDataRate:vector ETV
attr interpolationmode linear
attr recordingmode vector
attr source throughput(packetPushStarted)
attr title "incoming datarate"
attr unit bps
vector 177 WirelessB.hostR3.wlan[0].queue outgoingPacketLengths:vector ETV
attr interpolationmode none
attr recordingmode vector
attr source packetLength(packetPulled)
attr title "outgoing packet lengths"
attr unit b
vector 178 WirelessB.hostR3.wlan[0].queue outgoingDataRate:vector ETV
attr interpolationmode linear
attr recordingmode vector
attr source throughput(packetPulled)
attr title "outgoing datarate"
attr unit bps
vector 179 WirelessB.hostR3.wlan[0].queue droppedPacketLengthsQueueOverflow:vector ETV
attr interpolationmode none
attr recordingmode vector
attr source packetLength(packetDropReasonIsQueueOverflow(packetDropped))
attr title "dropped packet lengths: queue overflow"
attr unit b
vector 180 WirelessB.hostR3.wlan[0].queue flowQueueingTime:vector ETV
attr interpolationmode none
attr recordingmode vector
attr source queueingTime(demuxFlow(packetPulled))
attr title "flow queueing times"
attr unit s
vector 181 WirelessB.hostR3.wlan[0].queue flowIncomingDataRate:vector ETV
attr interpolationmode linear
attr recordingmode vector
attr source throughput(flowPacketLength(demuxFlow(packetPushStarted)))
attr title "flow specific incoming data rate"
attr unit bps
vector 182 WirelessB.hostR3.wlan[0].queue flowOutgoingDataRate:vector ETV
attr interpolationmode linear
attr recordingmode vector
attr source throughput(flowPacketLength(demuxFlow(packetPulled)))
attr title "flow specific outgoing data rate"
attr unit bps
vector 183 WirelessB.hostR3.wlan[0].mac packetDropIncorrectlyReceived:vector(packetBytes) ETV
attr interpolationmode none
attr recordingmode vector(packetBytes)
attr source packetDropReasonIsIncorrectlyReceived(packetDropped)
attr title "packet drop: incorrectly received, packetBytes"
vector 184 WirelessB.hostR3.wlan[0].mac packetDropNotAddressedToUs:vector(packetBytes) ETV
attr interpolationmode none
attr recordingmode vector(packetBytes)
attr source packetDropReasonIsNotAddressedToUs(packetDropped)
attr title "packet drop: not addressed to us, packetBytes"
vector 185 WirelessB.hostR3.wlan[0].mac packetDropQueueOverflow:vector(packetBytes) ETV
attr interpolationmode none
attr recordingmode vector(packetBytes)
attr source packetDropReasonIsQueueOverflow(packetDropped)
attr title "packet drop: queue overflow, packetBytes"
vector 186 WirelessB.hostR3.wlan[0].mac packetDropRetryLimitReached:vector(packetBytes) ETV
attr interpolationmode none
attr recordingmode vector(packetBytes)
attr source packetDropReasonIsRetryLimitReached(packetDropped)
attr title "packet drop: retry limit reached, packetBytes"
vector 187 WirelessB.hostR3.wlan[0].radio.energyConsumer powerConsumption:vector ETV
attr interpolationmode sample-hold
attr recordingmode vector
attr source powerConsumptionChanged
attr title "Power consumption"
attr unit W
vector 188 WirelessB.hostR3.wlan[0].radio radioMode:vector ETV
attr interpolationmode sample-hold
attr recordingmode vector
attr source radioModeChanged
attr title "Radio mode"
vector 189 WirelessB.hostR3.wlan[0].radio receptionState:vector ETV
attr interpolationmode sample-hold
attr recordingmode vector
attr source receptionStateChanged
attr title "Radio reception state"
vector 190 WirelessB.hostR3.wlan[0].radio transmissionState:vector ETV
attr interpolationmode sample-hold
attr recordingmode vector
attr source transmissionStateChanged
attr title "Radio transmission state"
vector 191 WirelessB.hostR3.wlan[0] packetDropInterfaceDown:vector(packetBytes) ETV
attr interpolationmode none
attr recordingmode vector(packetBytes)
attr source packetDropReasonIsInterfaceDown(packetDropped)
attr title "packet drops: interface down, packetBytes"
vector 192 WirelessB.hostR3.wlan[0] packetDropNoCarrier:vector(packetBytes) ETV
attr interpolationmode none
attr recordingmode vector(packetBytes)
attr source packetDropReasonIsNoCarrier(packetDropped)
attr title "packet drops: no carrier, packetBytes"
vector 193 WirelessB.hostR3.ipv4.ip packetDropAddressResolutionFailed:vector(packetBytes) ETV
attr interpolationmode none
attr recordingmode vector(packetBytes)
attr source packetDropReasonIsAddressResolutionFailed(packetDropped)
attr title "packet drop: address resolution failed, packetBytes"
vector 194 WirelessB.hostR3.ipv4.ip packetDropHopLimitReached:vector(packetBytes) ETV
attr interpolationmode none
attr recordingmode vector(packetBytes)
attr source packetDropReasonIsHopLimitReached(packetDropped)
attr title "packet drop: hop limit reached, packetBytes"
vector 195 WirelessB.hostR3.ipv4.ip packetDropForwardingDisabled:vector(packetBytes) ETV
attr interpolationmode none
attr recordingmode vector(packetBytes)
attr source packetDropReasonIsForwardingDisabled(packetDropped)
attr title "packet drop: forwarding disabled, packetBytes"
vector 196 WirelessB.hostR3.ipv4.ip packetDropNoInterfaceFound:vector(packetBytes) ETV
attr interpolationmode none
attr recordingmode vector(packetBytes)
attr source packetDropReasonIsNoInterfaceFound(packetDropped)
attr title "packet drop: no interface found, packetBytes"
vector 197 WirelessB.hostR3.ipv4.ip packetDropNoRouteFound:vector(packetBytes) ETV
attr interpolationmode none
attr recordingmode vector(packetBytes)
attr source packetDropReasonIsNoRouteFound(packetDropped)
attr title "packet drop: no route found, packetBytes"
vector 198 WirelessB.hostR3.ipv4.ip packetDropUndefined:vector(packetBytes) ETV
attr interpolationmode none
attr recordingmode vector(packetBytes)
attr source packetDropReasonIsUndefined(packetDropped)
attr title "packet drop: undefined, packetBytes"
vector 199 WirelessB.hostR3.udp packetSent:vector(packetBytes) ETV
attr interpolationmode none
attr recordingmode vector(packetBytes)
attr source packetSent
attr title "packets sent, packetBytes"
vector 200 WirelessB.hostR3.udp packetReceived:vector(packetBytes) ETV
attr interpolationmode none
attr recordingmode vector(packetBytes)
attr source packetReceived
attr title "packets received, packetBytes"
vector 201 WirelessB.hostR3.udp passedUpPk:vector(count) ETV
attr interpolationmode none
attr recordingmode vector(count)
attr source packetSentToUpper
attr title "packets passed up, count"
vector 202 WirelessB.hostR3.udp droppedPkWrongPort:vector(count) ETV
attr interpolationmode none
attr recordingmode vector(count)
attr source packetDropReasonIsNoPortFound(packetDropped)
attr title "packets dropped (wrong port), count"
vector 203 WirelessB.hostR3.udp droppedPkBadChecksum:vector(count) ETV
attr interpolationmode none
attr recordingmode vector(count)
attr source packetDropReasonIsIncorrectlyReceived(packetDropped)
attr title "packets dropped (checksum error), count"
0	0	0	0
0	0	0	0
0	0	0	0
0	0	0	0
0	0	0	0.002
0	10	0.022885250545	0
0	10	0.022885250545	0
0	10	0.022885250545	0.002
0	11	0.022885250545	0
0	11	0.022885250545	0.1
0	20	0.031421250545	0.002
0	20	0.031421250545	0
0	20	0.031421250545	0.002
0	20	0.031421250545	0.002
0	20	0.031421250545	0.002
0	31	0.03143226657	0
0	31	0.03143226657	0.01
0	36	0.03167226657	0.002
0	47	0.031862266582	0.01
0	52	0.040398266582	0.002
0	66	0.040409547539	0.005
0	66	0.040409547539	0.005
0	74	0.040649547539	0.002
0	82	0.040979547503	0.005
0	99	0.049515547503	0.002
0	105	0.04952632893	0.005
0	111	0.04976632893	0.002
0	113	0.04987632893	0
0	113	0.04987632893	0
0	113	0.04987632893	0.002
0	114	0.04987632893	0
0	114	0.04987632893	0.1
0	125	0.05841232893	0.002
0	125	0.05841232893	0
0	125	0.05841232893	0.002
0	125	0.05841232893	0.002
0	125	0.05841232893	0.002
0	136	0.058423346552	0
0	136	0.058423346552	0.01
0	141	0.058663346552	0.002
0	150	0.058873346552	0
0	150	0.058873346552	0
0	150	0.058873346552	0.002
0	150	0.058873346552	0.002
0	151	0.058873346552	0
0	151	0.058873346552	0.1
0	158	0.067409346552	0.002
0	158	0.067409346552	0
0	158	0.067409346552	0.002
0	158	0.067409346552	0.002
0	158	0.067409346552	0.002
0	169	0.067420364723	0
0	169	0.067420364723	0.01
0	174	0.067660364723	0.002
0	185	0.067810364735	0.01
0	200	0.076346364735	0.002
0	214	0.076357642351	0.005
0	214	0.076357642351	0.005
0	222	0.076597642351	0.002
0	226	0.076727642351	0
0	226	0.076727642351	0
0	226	0.076727642351	0.002
0	227	0.076727642351	0
0	227	0.076727642351	0.1
0	234	0.085263642351	0.002
0	234	0.085263642351	0
0	234	0.085263642351	0.002
0	234	0.085263642351	0.002
0	234	0.085263642351	0.002
0	245	0.085274661638	0
0	245	0.085274661638	0.01
0	250	0.085514661638	0.002
0	265	0.085585938129	0.005
0	265	0.085585938129	0.005
0	278	0.094121938129	0.002
0	284	0.094132716604	0.005
0	294	0.094372716604	0.002
0	297	0.094702716604	0
0	297	0.094702716604	0
0	297	0.094702716604	0.002
0	298	0.094702716604	0
0	298	0.094702716604	0.1
0	308	0.103238716604	0.002
0	308	0.103238716604	0
0	308	0.103238716604	0.002
0	308	0.103238716604	0.002
0	308	0.103238716604	0.002
0	319	0.103249737048	0
0	319	0.103249737048	0.01
0	324	0.103489737048	0.002
0	335	0.103759737064	0.01
0	342	0.112295737064	0.002
0	356	0.1123070113	0.005
0	356	0.1123070113	0.005
0	364	0.1125470113	0.002
0	373	0.112657011278	0.005
0	390	0.121193011278	0.002
0	396	0.121203787962	0.005
0	402	0.121443787962	0.002
0	405	0.121593787962	0
0	405	0.121593787962	0
0	405	0.121593787962	0.002
0	406	0.121593787962	0
0	406	0.121593787962	0.1
0	417	0.130129787962	0.002
0	417	0.130129787962	0
0	417	0.130129787962	0.002
0	417	0.130129787962	0.002
0	417	0.130129787962	0.002
0	428	0.1301408102	0
0	428	0.1301408102	0.01
0	433	0.1303808102	0.002
0	444	0.13075081022	0.01
0	451	0.13928681022	0.002
0	465	0.139298081893	0.005
0	465	0.139298081893	0.005
0	473	0.139538081893	0.002
0	477	0.139648081893	0
0	477	0.139648081893	0
0	477	0.139648081893	0.002
0	478	0.139648081893	0
0	478	0.139648081893	0.1
0	489	0.148184081893	0.002
0	489	0.148184081893	0
0	489	0.148184081893	0.002
0	489	0.148184081893	0.002
0	489	0.148184081893	0.002
0	500	0.148195105378	0
0	500	0.148195105378	0.01
0	505	0.148435105378	0.002
0	517	0.148565105391	0.01
0	528	0.157101105391	0.002
0	542	0.157112375359	0.005
0	542	0.157112375359	0.005
0	550	0.157352375359	0.002
0	556	0.157402520897	0
0	556	0.157402520897	0.01
0	563	0.165938520897	0.002
0	577	0.165949790016	0.005
0	577	0.165949790016	0.005
0	585	0.166189790016	0.002
0	589	0.166339790016	0
0	589	0.166339790016	0
0	589	0.166339790016	0.002
0	590	0.166339790016	0
0	590	0.166339790016	0.1
0	597	0.174875790016	0.002
0	597	0.174875790016	0
0	597	0.174875790016	0.002
0	597	0.174875790016	0.002
0	597	0.174875790016	0.002
0	608	0.174886815407	0
0	608	0.174886815407	0.01
0	613	0.175126815407	0.002
0	628	0.175218083335	0.005
0	628	0.175218083335	0.005
0	641	0.183754083335	0.002
0	647	0.183764855878	0.005
0	653	0.184004855878	0.002
0	657	0.184214855878	0
0	657	0.184214855878	0
0	657	0.184214855878	0.002
0	658	0.184214855878	0
0	658	0.184214855878	0.1
0	669	0.192750855878	0.002
0	669	0.192750855878	0
0	669	0.192750855878	0.002
0	669	0.192750855878	0.002
0	669	0.192750855878	0.002
0	680	0.192761882585	0
0	680	0.192761882585	0.01
0	685	0.193001882585	0.002
0	700	0.193293148765	0.005
0	700	0.193293148765	0.005
0	720	0.201829148765	0.002
0	726	0.201839920112	0.005
0	732	0.202079920112	0.002
0	738	0.202209941811	0
0	738	0.202209941811	0.01
0	749	0.210745941811	0.002
0	763	0.210757206593	0.005
0	763	0.210757206593	0.005
0	771	0.210997206593	0.002
0	777	0.211047357341	0
0	777	0.211047357341	0.01
0	788	0.219583357341	0.002
0	802	0.21959462126	0.005
0	802	0.21959462126	0.005
0	810	0.21983462126	0.002
0	814	0.22016462126	0
0	814	0.22016462126	0
0	814	0.22016462126	0.002
0	815	0.22016462126	0
0	815	0.22016462126	0.1
0	826	0.22870062126	0.002
0	826	0.22870062126	0
0	826	0.22870062126	0.002
0	826	0.22870062126	0.002
0	826	0.22870062126	0.002
0	837	0.228711650716	0
0	837	0.228711650716	0.01
0	842	0.228951650716	0.002
0	857	0.229102913386	0.005
0	857	0.229102913386	0.005
0	874	0.237638913386	0.002
0	880	0.237649682364	0.005
0	886	0.237889682364	0.002
0	892	0.237979706306	0
0	892	0.237979706306	0.01
0	903	0.246515706306	0.002
0	917	0.246526967583	0.005
0	917	0.246526967583	0.005
0	925	0.246766967583	0.002
0	929	0.246836967583	0
0	929	0.246836967583	0
0	929	0.246836967583	0.002
0	930	0.246836967583	0
0	930	0.246836967583	0.1
0	941	0.255372967583	0.002
0	941	0.255372967583	0
0	941	0.255372967583	0.002
0	941	0.255372967583	0.002
0	941	0.255372967583	0.002
0	952	0.255383999163	0
0	952	0.255383999163	0.01
0	957	0.255623999163	0.002
0	969	0.255853999183	0.01
0	976	0.264389999183	0.002
0	990	0.264401258695	0.005
0	990	0.264401258695	0.005
0	998	0.264641258695	0.002
0	1004	0.264711414738	0
0	1004	0.264711414738	0.01
0	1019	0.273247414738	0.002
0	1033	0.273258673372	0.005
0	1033	0.273258673372	0.005
0	1041	0.273498673372	0.002
0	1049	0.273588673353	0.005
0	1062	0.282124673353	0.002
0	1068	0.282135439391	0.005
0	1074	0.282375439391	0.002
0	1082	0.282485670073	0.005
0	1095	0.291021670073	0.002
0	1101	0.291032435523	0.005
0	1107	0.291272435523	0.002
0	1115	0.291442664587	0.005
0	1128	0.299978664587	0.002
0	1134	0.299989429446	0.005
0	1143	0.300229429446	0.002
0	1146	0.300359429446	0
0	1146	0.300359429446	0
0	1146	0.300359429446	0.002
0	1147	0.300359429446	0
0	1147	0.300359429446	0.1
0	1154	0.308895429446	0.002
0	1154	0.308895429446	0
0	1154	0.308895429446	0.002
0	1154	0.308895429446	0.002
0	1154	0.308895429446	0.002
0	1165	0.308906465507	0
0	1165	0.308906465507	0.01
0	1170	0.309146465507	0.002
0	1182	0.30941646553	0.01
0	1201	0.31795246553	0.002
0	1215	0.317963719701	0.005
0	1215	0.317963719701	0.005
0	1223	0.318203719701	0.002
0	1226	0.318313719701	0
0	1226	0.318313719701	0
0	1226	0.318313719701	0.002
0	1227	0.318313719701	0
0	1227	0.318313719701	0.1
0	1238	0.326849719701	0.002
0	1238	0.326849719701	0
0	1238	0.326849719701	0.002
0	1238	0.326849719701	0.002
0	1238	0.326849719701	0.002
0	1249	0.32686075733	0
0	1249	0.32686075733	0.01
0	1254	0.32710075733	0.002
0	1269	0.327252010207	0.005
0	1269	0.327252010207	0.005
0	1286	0.335788010207	0.002
0	1292	0.335798772704	0.005
0	1298	0.336038772704	0.002
0	1304	0.336188803348	0
0	1304	0.336188803348	0.01
0	1311	0.344724803348	0.002
0	1325	0.34473605482	0.005
0	1325	0.34473605482	0.005
0	1333	0.34497605482	0.002
0	1341	0.345046054802	0.005
0	1354	0.353582054802	0.002
0	1360	0.353592816127	0.005
0	1366	0.353832816127	0.002
0	1374	0.353963033949	0.005
0	1387	0.362499033949	0.002
0	1393	0.362509794686	0.005
0	1399	0.362749794686	0.002
0	1402	0.362919794686	0
0	1402	0.362919794686	0
0	1402	0.362919794686	0.002
0	1403	0.362919794686	0
0	1403	0.362919794686	0.1
0	1410	0.371455794686	0.002
0	1410	0.371455794686	0
0	1410	0.371455794686	0.002
0	1410	0.371455794686	0.002
0	1410	0.371455794686	0.002
0	1421	0.371466836348	0
0	1421	0.371466836348	0.01
0	1426	0.371706836348	0.002
0	1441	0.371938084685	0.005
0	1441	0.371938084685	0.005
0	1454	0.380474084685	0.002
0	1460	0.380484844239	0.005
0	1466	0.380724844239	0.002
0	1469	0.380994844239	0
0	1469	0.380994844239	0
0	1469	0.380994844239	0.002
0	1470	0.380994844239	0
0	1470	0.380994844239	0.1
0	1481	0.389530844239	0.002
0	1481	0.389530844239	0
0	1481	0.389530844239	0.002
0	1481	0.389530844239	0.002
0	1481	0.389530844239	0.002
0	1492	0.389541887592	0
0	1492	0.389541887592	0.01
0	1497	0.389781887592	0.002
0	1506	0.389911887592	0
0	1506	0.389911887592	0
0	1506	0.389911887592	0.002
0	1506	0.389911887592	0.002
0	1507	0.389911887592	0
0	1507	0.389911887592	0.1
0	1514	0.398447887592	0.002
0	1514	0.398447887592	0
0	1514	0.398447887592	0.002
0	1514	0.398447887592	0.002
0	1514	0.398447887592	0.002
0	1525	0.398458931791	0
0	1525	0.398458931791	0.01
0	1530	0.398698931791	0.002
0	1541	0.398888931811	0.01
0	1551	0.407424931811	0.002
0	1565	0.407436176889	0.005
0	1565	0.407436176889	0.005
0	1573	0.407676176889	0.002
0	1582	0.407886176865	0.005
0	1595	0.416422176865	0.002
0	1601	0.416432934056	0.005
0	1607	0.416672934056	0.002
0	1612	0.416842934056	0
0	1612	0.416842934056	0
0	1612	0.416842934056	0.002
0	1613	0.416842934056	0
0	1613	0.416842934056	0.1
0	1625	0.425378934056	0.002
0	1625	0.425378934056	0
0	1625	0.425378934056	0.005
0	1625	0.425378934056	0.005
0	1625	0.425378934056	0.005
0	1626	0.425378970793	0.002
0	1642	0.426028971243	0
0	1642	0.426028971243	0.01
0	1649	0.434564971243	0.002
0	1663	0.434576213521	0.005
0	1663	0.434576213521	0.005
0	1671	0.434816213521	0.002
0	1680	0.434926213502	0.005
0	1693	0.443462213502	0.002
0	1699	0.443472968921	0.005
0	1705	0.443712968921	0.002
0	1708	0.443822968921	0
0	1708	0.443822968921	0
0	1708	0.443822968921	0.002
0	1709	0.443822968921	0
0	1709	0.443822968921	0.1
0	1720	0.452358968921	0.002
0	1720	0.452358968921	0
0	1720	0.452358968921	0.002
0	1720	0.452358968921	0.002
0	1720	0.452358968921	0.002
0	1731	0.452370018398	0
0	1731	0.452370018398	0.01
0	1736	0.452610018398	0.002
0	1745	0.452920018398	0
0	1745	0.452920018398	0
0	1745	0.452920018398	0.002
0	1745	0.452920018398	0.002
0	1746	0.452920018398	0
0	1746	0.452920018398	0.1
0	1757	0.461456018398	0.002
0	1757	0.461456018398	0
0	1757	0.461456018398	0.002
0	1757	0.461456018398	0.002
0	1757	0.461456018398	0.002
0	1768	0.461467068793	0
0	1768	0.461467068793	0.01
0	1773	0.461707068793	0.002
0	1784	0.461897068815	0.01
0	1795	0.470433068815	0.002
0	1809	0.470444307366	0.005
0	1809	0.470444307366	0.005
0	1817	0.470684307366	0.002
0	1823	0.470794484462	0
0	1823	0.470794484462	0.01
0	1830	0.479330484462	0.002
0	1844	0.479341722084	0.005
0	1844	0.479341722084	0.005
0	1852	0.479581722084	0.002
0	1858	0.47963190011	0
0	1858	0.47963190011	0.01
0	1869	0.48816790011	0.002
0	1883	0.488179136806	0.005
0	1883	0.488179136806	0.005
0	1891	0.488419136806	0.002
0	1899	0.488589136785	0.005
0	1912	0.497125136785	0.002
0	1918	0.497135888694	0.005
0	1924	0.497375888694	0.002
0	1927	0.497445888694	0
0	1927	0.497445888694	0
0	1927	0.497445888694	0.002
0	1928	0.497445888694	0
0	1928	0.497445888694	0.1
0	1942	0.505981888694	0.002
0	1942	0.505981888694	0
0	1942	0.505981888694	0.002
0	1942	0.505981888694	0.002
0	1942	0.505981888694	0.002
0	1954	0.505992943699	0
0	1954	0.505992943699	0.01
0	1960	0.506232943699	0.002
0	1968	0.506362943699	0
0	1968	0.506362943699	0
0	1968	0.506362943699	0.002
0	1968	0.506362943699	0.002
0	1969	0.506362943699	0
0	1969	0.506362943699	0.1
0	1976	0.514898943699	0.002
0	1976	0.514898943699	0
0	1976	0.514898943699	0.002
0	1976	0.514898943699	0.002
0	1976	0.514898943699	0.002
0	1988	0.51490999965	0
0	1988	0.51490999965	0.01
0	1994	0.51514999965	0.002
0	2002	0.51523999965	0
0	2002	0.51523999965	0
0	2002	0.51523999965	0.002
0	2002	0.51523999965	0.002
0	2003	0.51523999965	0
0	2003	0.51523999965	0.1
0	2014	0.52377599965	0.002
0	2014	0.52377599965	0
0	2014	0.52377599965	0.002
0	2014	0.52377599965	0.002
0	2014	0.52377599965	0.002
0	2026	0.523787056549	0
0	2026	0.523787056549	0.01
0	2032	0.524027056549	0.002
0	2040	0.524137056549	0
0	2040	0.524137056549	0
0	2040	0.524137056549	0.002
0	2040	0.524137056549	0.002
0	2041	0.524137056549	0
0	2041	0.524137056549	0.1
0	2048	0.532673056549	0.002
0	2048	0.532673056549	0
0	2048	0.532673056549	0.002
0	2048	0.532673056549	0.002
0	2048	0.532673056549	0.002
0	2060	0.532684114407	0
0	2060	0.532684114407	0.01
0	2066	0.532924114407	0.002
0	2074	0.533014114407	0
0	2074	0.533014114407	0
0	2074	0.533014114407	0.002
0	2074	0.533014114407	0.002
0	2075	0.533014114407	0
0	2075	0.533014114407	0.1
0	2082	0.541550114407	0.002
0	2082	0.541550114407	0
0	2082	0.541550114407	0.002
0	2082	0.541550114407	0.002
0	2082	0.541550114407	0.002
0	2094	0.541561173229	0
0	2094	0.541561173229	0.01
0	2100	0.541801173229	0.002
0	2111	0.541991173252	0.01
0	2119	0.550527173252	0.002
0	2131	0.550538403368	0.005
0	2131	0.550538403368	0.005
0	2139	0.550778403368	0.002
0	2143	0.550888403368	0
0	2143	0.550888403368	0
0	2143	0.550888403368	0.002
0	2144	0.550888403368	0
0	2144	0.550888403368	0.1
0	2151	0.559424403368	0.002
0	2151	0.559424403368	0
0	2151	0.559424403368	0.002
0	2151	0.559424403368	0.002
0	2151	0.559424403368	0.002
0	2163	0.559435464153	0
0	2163	0.559435464153	0.01
0	2169	0.559675464153	0.002
0	2182	0.559886692827	0.005
0	2182	0.559886692827	0.005
0	2199	0.568422692827	0.002
0	2205	0.568433440098	0.005
0	2211	0.568673440098	0.002
0	2218	0.568763489728	0
0	2218	0.568763489728	0.01
0	2242	0.577299489728	0.002
0	2254	0.577310716991	0.005
0	2254	0.577310716991	0.005
0	2262	0.577550716991	0.002
0	2266	0.577720716991	0
0	2266	0.577720716991	0
0	2266	0.577720716991	0.002
0	2267	0.577720716991	0
0	2267	0.577720716991	0.1
0	2278	0.586256716991	0.002
0	2278	0.586256716991	0
0	2278	0.586256716991	0.002
0	2278	0.586256716991	0.002
0	2278	0.586256716991	0.002
0	2290	0.586267780779	0
0	2290	0.586267780779	0.01
0	2296	0.586507780779	0.002
0	2309	0.586579006584	0.005
0	2309	0.586579006584	0.005
0	2326	0.595115006584	0.002
0	2332	0.595125752128	0.005
0	2338	0.595365752128	0.002
0	2342	0.595435752128	0
0	2342	0.595435752128	0
0	2342	0.595435752128	0.002
0	2343	0.595435752128	0
0	2343	0.595435752128	0.1
0	2361	0.603971752128	0.002
0	2361	0.603971752128	0
0	2361	0.603971752128	0.002
0	2361	0.603971752128	0.002
0	2361	0.603971752128	0.002
0	2373	0.603982817936	0
0	2373	0.603982817936	0.01
0	2379	0.604222817936	0.002
0	2387	0.604332817936	0
0	2387	0.604332817936	0
0	2387	0.604332817936	0.002
0	2387	0.604332817936	0.002
0	2388	0.604332817936	0
0	2388	0.604332817936	0.1
0	2395	0.612868817936	0.002
0	2395	0.612868817936	0
0	2395	0.612868817936	0.002
0	2395	0.612868817936	0.002
0	2395	0.612868817936	0.002
0	2407	0.612879884768	0
0	2407	0.612879884768	0.01
0	2413	0.613119884768	0.002
0	2428	0.613489884804	0.01
0	2440	0.622025884804	0.002
0	2452	0.622037107265	0.005
0	2452	0.622037107265	0.005
0	2460	0.622277107265	0.002
0	2464	0.622407107265	0
0	2464	0.622407107265	0
0	2464	0.622407107265	0.002
0	2465	0.622407107265	0
0	2465	0.622407107265	0.1
0	2472	0.630943107265	0.002
0	2472	0.630943107265	0
0	2472	0.630943107265	0.002
0	2472	0.630943107265	0.002
0	2472	0.630943107265	0.002
0	2484	0.630954176202	0
0	2484	0.630954176202	0.01
0	2490	0.631194176202	0.002
0	2501	0.631344176225	0.01
0	2509	0.639880176225	0.002
0	2521	0.639891396757	0.005
0	2521	0.639891396757	0.005
0	2529	0.640131396757	0.002
0	2540	0.640201396742	0.005
0	2542	0.64020159194	0
0	2542	0.64020159194	0.01
0	2556	0.64873759194	0.002
0	2565	0.64920759194	0
0	2565	0.64920759194	0
0	2565	0.64920759194	0.002
0	2565	0.64920759194	0.002
0	2566	0.64920759194	0
0	2566	0.64920759194	0.1
0	2581	0.65774359194	0.002
0	2581	0.65774359194	0
0	2581	0.65774359194	0.002
0	2581	0.65774359194	0.002
0	2581	0.65774359194	0.002
0	2593	0.657754664053	0
0	2593	0.657754664053	0.01
0	2599	0.657994664053	0.002
0	2607	0.658084664053	0
0	2607	0.658084664053	0
0	2607	0.658084664053	0.002
0	2607	0.658084664053	0.002
0	2608	0.658084664053	0
0	2608	0.658084664053	0.1
0	2615	0.666620664053	0.002
0	2615	0.666620664053	0
0	2615	0.666620664053	0.002
0	2615	0.666620664053	0.002
0	2615	0.666620664053	0.002
0	2627	0.666631737232	0
0	2627	0.666631737232	0.01
0	2633	0.666871737232	0.002
0	2644	0.666961737252	0.01
0	2656	0.675497737252	0.002
0	2668	0.675508953916	0.005
0	2668	0.675508953916	0.005
0	2676	0.675748953916	0.002
0	2680	0.676138953916	0
0	2680	0.676138953916	0
0	2680	0.676138953916	0.002
0	2681	0.676138953916	0
0	2681	0.676138953916	0.1
0	2692	0.684674953916	0.002
0	2692	0.684674953916	0
0	2692	0.684674953916	0.002
0	2692	0.684674953916	0.002
0	2692	0.684674953916	0.002
0	2704	0.684686029286	0
0	2704	0.684686029286	0.01
0	2710	0.684926029286	0.002
0	2721	0.68507602931	0.01
0	2733	0.69361202931	0.002
0	2745	0.693623243996	0.005
0	2745	0.693623243996	0.005
0	2753	0.693863243996	0.002
0	2762	0.693993243978	0.005
0	2786	0.702529243978	0.002
0	2792	0.702539982628	0.005
0	2798	0.702779982628	0.002
0	2802	0.703049982628	0
0	2802	0.703049982628	0
0	2802	0.703049982628	0.002
0	2803	0.703049982628	0
0	2803	0.703049982628	0.1
0	2814	0.711585982628	0.002
0	2814	0.711585982628	0
0	2814	0.711585982628	0.002
0	2814	0.711585982628	0.002
0	2814	0.711585982628	0.002
0	2826	0.711597061317	0
0	2826	0.711597061317	0.01
0	2832	0.711837061317	0.002
0	2840	0.711927061317	0
0	2840	0.711927061317	0
0	2840	0.711927061317	0.002
0	2840	0.711927061317	0.002
0	2841	0.711927061317	0
0	2841	0.711927061317	0.1
0	2852	0.720463061317	0.002
0	2852	0.720463061317	0
0	2852	0.720463061317	0.002
0	2852	0.720463061317	0.002
0	2852	0.720463061317	0.002
0	2864	0.720474141115	0
0	2864	0.720474141115	0.01
0	2870	0.720714141115	0.002
0	2881	0.720804141115	0
0	2881	0.720804141115	0
0	2881	0.720804141115	0.002
0	2881	0.720804141115	0.002
0	2882	0.720804141115	0
0	2882	0.720804141115	0.1
0	2895	0.729340141115	0.002
0	2895	0.729340141115	0
0	2895	0.729340141115	0.005
0	2895	0.729340141115	0.005
0	2895	0.729340141115	0.005
0	2896	0.729340141135	0.002
0	2914	0.729692228218	0.005
0	2935	0.738228228218	0.002
0	2941	0.7382389646	0.005
0	2947	0.7384789646	0.002
0	2951	0.7387889646	0
0	2951	0.7387889646	0
0	2951	0.7387889646	0.002
0	2952	0.7387889646	0
0	2952	0.7387889646	0.1
0	2959	0.7473249646	0.002
0	2959	0.7473249646	0
0	2959	0.7473249646	0.002
0	2959	0.7473249646	0.002
0	2959	0.7473249646	0.002
0	2971	0.747336047796	0
0	2971	0.747336047796	0.01
0	2977	0.747576047796	0.002
0	2985	0.747786047796	0
0	2985	0.747786047796	0
0	2985	0.747786047796	0.002
0	2985	0.747786047796	0.002
0	2986	0.747786047796	0
0	2986	0.747786047796	0.1
0	2997	0.756322047796	0.002
0	2997	0.756322047796	0
0	2997	0.756322047796	0.002
0	2997	0.756322047796	0.002
0	2997	0.756322047796	0.002
0	3009	0.756333132145	0
0	3009	0.756333132145	0.01
0	3015	0.756573132145	0.002
0	3028	0.756824339362	0.005
0	3028	0.756824339362	0.005
0	3045	0.765360339362	0.002
0	3051	0.765371074029	0.005
0	3057	0.765611074029	0.002
0	3069	0.76590114304	0
0	3069	0.76590114304	0.01
0	3083	0.77443714304	0.005
0	3085	0.774437222967	0.002
0	3085	0.774437222967	0.002
0	3089	0.774527222967	0
0	3089	0.774527222967	0
0	3089	0.774527222967	0.002
0	3090	0.774527222967	0
0	3090	0.774527222967	0.1
0	3099	0.783063222967	0.002
0	3099	0.783063222967	0
0	3099	0.783063222967	0.002
0	3099	0.783063222967	0.002
0	3099	0.783063222967	0.002
0	3111	0.783074310782	0
0	3111	0.783074310782	0.01
0	3117	0.783314310782	0.002
0	3124	0.783364310782	0
0	3124	0.783364310782	0
0	3124	0.783364310782	0.002
0	3124	0.783364310782	0.002
0	3125	0.783364310782	0
0	3125	0.783364310782	0.1
0	3137	0.791900310782	0.002
0	3137	0.791900310782	0
0	3137	0.791900310782	0.002
0	3137	0.791900310782	0.002
0	3137	0.791900310782	0.002
0	3149	0.791911399756	0
0	3149	0.791911399756	0.01
0	3155	0.792151399756	0.002
0	3163	0.792461399756	0
0	3163	0.792461399756	0
0	3163	0.792461399756	0.002
0	3163	0.792461399756	0.002
0	3164	0.792461399756	0
0	3164	0.792461399756	0.1
0	3174	0.800997399756	0.002
0	3174	0.800997399756	0
0	3174	0.800997399756	0.002
0	3174	0.800997399756	0.002
0	3174	0.800997399756	0.002
0	3186	0.801008489931	0
0	3186	0.801008489931	0.01
0	3192	0.801248489931	0.002
0	3203	0.801318489952	0.01
0	3211	0.809854489952	0.002
0	3223	0.809865691793	0.005
0	3223	0.809865691793	0.005
0	3231	0.810105691793	0.002
0	3235	0.810355691793	0
0	3235	0.810355691793	0
0	3235	0.810355691793	0.002
0	3236	0.810355691793	0
0	3236	0.810355691793	0.1
0	3243	0.818891691793	0.002
0	3243	0.818891691793	0
0	3243	0.818891691793	0.002
0	3243	0.818891691793	0.002
0	3243	0.818891691793	0.002
0	3255	0.818902784349	0
0	3255	0.818902784349	0.01
0	3261	0.819142784349	0.002
0	3272	0.819552784393	0.01
0	3280	0.828088784393	0.002
0	3292	0.828099984197	0.005
0	3292	0.828099984197	0.005
0	3300	0.828339984197	0.002
0	3304	0.828469984197	0
0	3304	0.828469984197	0
0	3304	0.828469984197	0.002
0	3305	0.828469984197	0
0	3305	0.828469984197	0.1
0	3316	0.837005984197	0.002
0	3316	0.837005984197	0
0	3316	0.837005984197	0.002
0	3316	0.837005984197	0.002
0	3316	0.837005984197	0.002
0	3328	0.837017079193	0
0	3328	0.837017079193	0.01
0	3334	0.837257079193	0.002
0	3345	0.837487079225	0.01
0	3365	0.846023079225	0.002
0	3377	0.846034277019	0.005
0	3377	0.846034277019	0.005
0	3385	0.846274277019	0.002
0	3389	0.846364277019	0
0	3389	0.846364277019	0
0	3389	0.846364277019	0.002
0	3390	0.846364277019	0
0	3390	0.846364277019	0.1
0	3397	0.854900277019	0.002
0	3397	0.854900277019	0
0	3397	0.854900277019	0.002
0	3397	0.854900277019	0.002
0	3397	0.854900277019	0.002
0	3409	0.854911374452	0
0	3409	0.854911374452	0.01
0	3415	0.855151374452	0.002
0	3428	0.855282570647	0.005
0	3428	0.855282570647	0.005
0	3441	0.863818570647	0.002
0	3447	0.863829299164	0.005
0	3453	0.864069299164	0.002
0	3457	0.864359299164	0
0	3457	0.864359299164	0
0	3457	0.864359299164	0.002
0	3458	0.864359299164	0
0	3458	0.864359299164	0.1
0	3465	0.872895299164	0.002
0	3465	0.872895299164	0
0	3465	0.872895299164	0.002
0	3465	0.872895299164	0.002
0	3465	0.872895299164	0.002
0	3477	0.872906399074	0
0	3477	0.872906399074	0.01
0	3483	0.873146399074	0.002
0	3494	0.873336399104	0.01
0	3502	0.881872399104	0.002
0	3514	0.881883592863	0.005
0	3514	0.881883592863	0.005
0	3522	0.882123592863	0.002
0	3531	0.882353592843	0.005
0	3548	0.890889592843	0.002
0	3554	0.89090031969	0.005
0	3560	0.89114031969	0.002
0	3564	0.89139031969	0
0	3564	0.89139031969	0
0	3564	0.89139031969	0.002
0	3565	0.89139031969	0
0	3565	0.89139031969	0.1
0	3572	0.89992631969	0.002
0	3572	0.89992631969	0
0	3572	0.89992631969	0.002
0	3572	0.89992631969	0.002
0	3572	0.89992631969	0.002
0	3584	0.899937423373	0
0	3584	0.899937423373	0.01
0	3593	0.900177423373	0.002
0	3601	0.900247423373	0
0	3601	0.900247423373	0
0	3601	0.900247423373	0.002
0	3601	0.900247423373	0.002
0	3602	0.900247423373	0
0	3602	0.900247423373	0.1
0	3609	0.908783423373	0.002
0	3609	0.908783423373	0
0	3609	0.908783423373	0.002
0	3609	0.908783423373	0.002
0	3609	0.908783423373	0.002
0	3621	0.908794528306	0
0	3621	0.908794528306	0.01
0	3627	0.909034528306	0.002
0	3638	0.909124528329	0.01
0	3646	0.917660528329	0.002
0	3658	0.917671718039	0.005
0	3658	0.917671718039	0.005
0	3666	0.917911718039	0.002
0	3673	0.917961944149	0
0	3673	0.917961944149	0.01
0	3685	0.926497944149	0.002
0	3697	0.926509132856	0.005
0	3697	0.926509132856	0.005
0	3705	0.926749132856	0.002
0	3714	0.926919132839	0.005
0	3731	0.935455132839	0.002
0	3737	0.935465856961	0.005
0	3743	0.935705856961	0.002
0	3747	0.935775856961	0
0	3747	0.935775856961	0
0	3747	0.935775856961	0.002
0	3748	0.935775856961	0
0	3748	0.935775856961	0.1
0	3759	0.944311856961	0.002
0	3759	0.944311856961	0
0	3759	0.944311856961	0.002
0	3759	0.944311856961	0.002
0	3759	0.944311856961	0.002
0	3771	0.94432296697	0
0	3771	0.94432296697	0.01
0	3777	0.94456296697	0.002
0	3785	0.94475296697	0
0	3785	0.94475296697	0
0	3785	0.94475296697	0.002
0	3785	0.94475296697	0.002
0	3786	0.94475296697	0
0	3786	0.94475296697	0.1
0	3793	0.95328896697	0.002
0	3793	0.95328896697	0
0	3793	0.95328896697	0.002
0	3793	0.95328896697	0.002
0	3793	0.95328896697	0.002
0	3805	0.953300078278	0
0	3805	0.953300078278	0.01
0	3811	0.953540078278	0.002
0	3822	0.953850078318	0.01
0	3840	0.962386078318	0.005
0	3849	0.962387263294	0.002
0	3849	0.962387263294	0.002
0	3851	0.962657263294	0
0	3851	0.962657263294	0
0	3851	0.962657263294	0.002
0	3852	0.962657263294	0
0	3852	0.962657263294	0.1
0	3869	0.971193263294	0.002
0	3869	0.971193263294	0
0	3869	0.971193263294	0.002
0	3869	0.971193263294	0.002
0	3869	0.971193263294	0.002
0	3881	0.971204377214	0
0	3881	0.971204377214	0.01
0	3887	0.971444377214	0.002
0	3895	0.971614377214	0
0	3895	0.971614377214	0
0	3895	0.971614377214	0.002
0	3895	0.971614377214	0.002
0	3896	0.971614377214	0
0	3896	0.971614377214	0.1
0	3911	0.980150377214	0.002
0	3911	0.980150377214	0
0	3911	0.980150377214	0.002
0	3911	0.980150377214	0.002
0	3911	0.980150377214	0.002
0	3923	0.980161492449	0
0	3923	0.980161492449	0.01
0	3929	0.980401492449	0.002
0	3942	0.980692674389	0.005
0	3942	0.980692674389	0.005
0	3959	0.989228674389	0.002
0	3965	0.989239395264	0.005
0	3971	0.989479395264	0.002
0	3975	0.989909395264	0
0	3975	0.989909395264	0
0	3975	0.989909395264	0.002
0	3976	0.989909395264	0
0	3976	0.989909395264	0.1
0	3983	0.998445395264	0.002
0	3983	0.998445395264	0
0	3983	0.998445395264	0.002
0	3983	0.998445395264	0.002
0	3983	0.998445395264	0.002
0	3995	0.998456513206	0
0	3995	0.998456513206	0.01
0	4001	0.998696513206	0.002
0	4012	0.998826513233	0.01
0	4031	1.007362513233	0.002
0	4043	1.007373692705	0.005
0	4043	1.007373692705	0.005
0	4051	1.007613692705	0.002
0	4060	1.007683692693	0.005
0	4073	1.016219692693	0.002
0	4079	1.016230411957	0.005
0	4085	1.016470411957	0.002
0	4092	1.016560509755	0
[...]
190	12806	3.112434650282	1
190	12807	3.112434650282	2
190	12812	3.112674650282	1
190	12812	3.112674650282	0
190	12849	3.121752065474	1
190	12850	3.121752065474	2
190	12855	3.121992065474	1
190	12855	3.121992065474	0
190	12964	3.148784134628	1
190	12965	3.148784134628	2
190	12970	3.149024134628	1
190	12970	3.149024134628	0
190	12999	3.15776154982	1
190	13000	3.15776154982	2
190	13005	3.15800154982	1
190	13005	3.15800154982	0
190	13016	3.15817154982	1
190	13017	3.15817154982	2
190	13032	3.16670754982	1
190	13032	3.16670754982	0
190	13126	3.184692733023	1
190	13127	3.184692733023	2
190	13132	3.184932733023	1
190	13132	3.184932733023	0
190	13143	3.185022733023	1
190	13144	3.185022733023	2
190	13151	3.193558733023	1
190	13151	3.193558733023	0
190	13232	3.211583921136	1
190	13233	3.211583921136	2
190	13238	3.211823921136	1
190	13238	3.211823921136	0
190	13249	3.211993921136	1
190	13250	3.211993921136	2
190	13265	3.220529921136	1
190	13265	3.220529921136	0
190	13291	3.221010629758	1
190	13292	3.221010629758	2
190	13303	3.229546629758	1
190	13303	3.229546629758	0
190	13385	3.247431824519	1
190	13386	3.247431824519	2
190	13391	3.247671824519	1
190	13391	3.247671824519	0
190	13402	3.247761824519	1
190	13403	3.247761824519	2
190	13410	3.256297824519	1
190	13410	3.256297824519	0
190	13462	3.26518593125	1
190	13463	3.26518593125	2
190	13468	3.26542593125	1
190	13468	3.26542593125	0
190	13479	3.26557593125	1
190	13480	3.26557593125	2
190	13487	3.27411193125	1
190	13487	3.27411193125	0
190	13551	3.283511134402	1
190	13552	3.283511134402	2
190	13563	3.292047134402	1
190	13563	3.292047134402	0
190	13614	3.300935246857	1
190	13615	3.300935246857	2
190	13620	3.301175246857	1
190	13620	3.301175246857	0
190	13631	3.301325246857	1
190	13632	3.301325246857	2
190	13645	3.309861246857	1
190	13645	3.309861246857	0
190	13683	3.318639771669	1
190	13684	3.318639771669	2
190	13693	3.318879771669	1
190	13693	3.318879771669	0
190	13794	3.345611921421	1
190	13795	3.345611921421	2
190	13800	3.345851921421	1
190	13800	3.345851921421	0
190	13811	3.346021921421	1
190	13812	3.346021921421	2
190	13819	3.354557921421	1
190	13819	3.354557921421	0
190	13897	3.372683140133	1
190	13898	3.372683140133	2
190	13903	3.372923140133	1
190	13903	3.372923140133	0
190	13948	3.38189167602	1
190	13949	3.38189167602	2
190	13964	3.39042767602	1
190	13964	3.39042767602	0
190	14053	3.408432901868	1
190	14054	3.408432901868	2
190	14059	3.408672901868	1
190	14059	3.408672901868	0
190	14070	3.408802901868	1
190	14071	3.408802901868	2
190	14084	3.417338901868	1
190	14084	3.417338901868	0
190	14152	3.434993961801	1
190	14153	3.434993961801	2
190	14158	3.435233961801	1
190	14158	3.435233961801	0
190	14237	3.452868507481	1
190	14238	3.452868507481	2
190	14243	3.453108507481	1
190	14243	3.453108507481	0
190	14272	3.461765922673	1
190	14273	3.461765922673	2
190	14278	3.462005922673	1
190	14278	3.462005922673	0
190	14331	3.471074472603	1
190	14332	3.471074472603	2
190	14339	3.479610472603	1
190	14339	3.479610472603	0
190	14383	3.488778616809	1
190	14384	3.488778616809	2
190	14389	3.489018616809	1
190	14389	3.489018616809	0
190	14418	3.497776032001	1
190	14419	3.497776032001	2
190	14424	3.498016032001	1
190	14424	3.498016032001	0
190	14472	3.506984587687	1
190	14473	3.506984587687	2
190	14488	3.515520587687	1
190	14488	3.515520587687	0
190	14539	3.524648738287	1
190	14540	3.524648738287	2
190	14545	3.524888738287	1
190	14545	3.524888738287	0
190	14576	3.533806768661	1
190	14577	3.533806768661	2
190	14585	3.542342768661	1
190	14585	3.542342768661	0
190	14644	3.559878025615	1
190	14645	3.559878025615	2
190	14650	3.560118025615	1
190	14650	3.560118025615	0
190	14661	3.560268025615	1
190	14662	3.560268025615	2
190	14676	3.568804025615	1
190	14676	3.568804025615	0
190	14723	3.577672185882	1
190	14724	3.577672185882	2
190	14729	3.577912185882	1
190	14729	3.577912185882	0
190	14740	3.578322185882	1
190	14741	3.578322185882	2
190	14758	3.586858185882	1
190	14758	3.586858185882	0
190	14777	3.588068185882	1
190	14778	3.588068185882	2
190	14783	3.596604185882	1
190	14783	3.596604185882	0
190	14809	3.596904946029	1
190	14810	3.596904946029	2
190	14824	3.605440946029	1
190	14824	3.605440946029	0
190	14850	3.605921707594	1
190	14851	3.605921707594	2
190	14858	3.614457707594	1
190	14858	3.614457707594	0
190	14884	3.614798470614	1
190	14885	3.614798470614	2
190	14898	3.623334470614	1
190	14898	3.623334470614	0
190	14936	3.632471876309	1
190	14937	3.632471876309	2
190	14942	3.632711876309	1
190	14942	3.632711876309	0
190	14970	3.641329291501	1
190	14971	3.641329291501	2
190	14976	3.641569291501	1
190	14976	3.641569291501	0
190	14987	3.642019291501	1
190	14988	3.642019291501	2
190	15007	3.650555291501	1
190	15007	3.650555291501	0
190	15050	3.659463467002	1
190	15051	3.659463467002	2
190	15056	3.659703467002	1
190	15056	3.659703467002	0
190	15084	3.668420882194	1
190	15085	3.668420882194	2
190	15090	3.668660882194	1
190	15090	3.668660882194	0
190	15100	3.669110882194	1
190	15101	3.669110882194	2
190	15112	3.677646882194	1
190	15112	3.677646882194	0
190	15141	3.678367655663	1
190	15142	3.678367655663	2
190	15153	3.686903655663	1
190	15153	3.686903655663	0
190	15198	3.696152397171	1
190	15199	3.696152397171	2
190	15213	3.704688397171	1
190	15213	3.704688397171	0
190	15238	3.705369175243	1
190	15239	3.705369175243	2
190	15253	3.713905175243	1
190	15253	3.713905175243	0
190	15278	3.714425954902	1
190	15279	3.714425954902	2
190	15286	3.722961954902	1
190	15286	3.722961954902	0
190	15311	3.723282736129	1
190	15312	3.723282736129	2
190	15319	3.731818736129	1
190	15319	3.731818736129	0
190	15344	3.732339518897	1
190	15345	3.732339518897	2
190	15352	3.740875518897	1
190	15352	3.740875518897	0
190	15381	3.74141630325	1
190	15382	3.74141630325	2
190	15401	3.74995230325	1
190	15401	3.74995230325	0
190	15426	3.750513089199	1
190	15427	3.750513089199	2
190	15438	3.759049089199	1
190	15438	3.759049089199	0
201	0	0	0
202	0	0	0
203	0	0	0
11	25288	10.797901034894	420015.98904978
13	25288	10.797901034894	84003.197809955
40	25288	0.1	0
40	25288	0.2	0
40	25288	0.3	0
40	25288	0.4	0
40	25288	0.5	0
40	25288	0.6	0
40	25288	0.7	0
40	25288	0.8	0
40	25288	0.9	0
40	25288	1	0
40	25288	1.1	0
40	25288	1.2	0
40	25288	1.3	0
40	25288	1.4	0
40	25288	1.5	0
40	25288	1.6	0
40	25288	1.7	0
40	25288	1.8	0
40	25288	1.9	0
40	25288	2	0
40	25288	2.1	0
40	25288	2.2	0
40	25288	2.3	0
40	25288	2.4	0
40	25288	2.5	0
40	25288	2.6	0
40	25288	2.7	0
40	25288	2.8	0
40	25288	2.9	0
40	25288	3	0
40	25288	3.1	0
40	25288	3.2	0
40	25288	3.3	0
40	25288	3.4	0
40	25288	3.5	0
40	25288	3.6	0
40	25288	3.7	0
40	25288	3.8	0
40	25288	3.9	0
40	25288	4	0
40	25288	4.1	0
40	25288	4.2	0
40	25288	4.3	0
40	25288	4.4	0
40	25288	4.5	0
40	25288	4.6	0
40	25288	4.7	0
40	25288	4.8	0
40	25288	4.9	0
40	25288	5	0
40	25288	5.1	0
40	25288	5.2	0
40	25288	5.3	0
40	25288	5.4	0
40	25288	5.5	0
40	25288	5.6	0
40	25288	5.7	0
40	25288	5.8	0
40	25288	5.9	0
40	25288	6	0
40	25288	6.1	0
40	25288	6.2	0
40	25288	6.3	0
40	25288	6.4	0
40	25288	6.5	0
40	25288	6.6	0
40	25288	6.7	0
40	25288	6.8	0
40	25288	6.9	0
40	25288	7	0
40	25288	7.1	0
40	25288	7.2	0
40	25288	7.3	0
40	25288	7.4	0
40	25288	7.5	0
40	25288	7.6	0
40	25288	7.7	0
40	25288	7.8	0
40	25288	7.9	0
40	25288	8	0
40	25288	8.1	0
40	25288	8.2	0
40	25288	8.3	0
40	25288	8.4	0
40	25288	8.5	0
40	25288	8.6	0
40	25288	8.7	0
40	25288	8.8	0
40	25288	8.9	0
40	25288	9	0
40	25288	9.1	0
40	25288	9.2	0
40	25288	9.3	0
40	25288	9.4	0
40	25288	9.5	0
40	25288	9.6	0
40	25288	9.7	0
40	25288	9.8	0
40	25288	9.9	0
40	25288	10	0
40	25288	10.1	0
40	25288	10.2	0
40	25288	10.3	0
40	25288	10.4	0
40	25288	10.5	0
40	25288	10.6	0
40	25288	10.7	0
40	25288	10.797901034894	0
55	25288	0.1	0
55	25288	0.2	0
55	25288	0.3	0
55	25288	0.4	0
55	25288	0.5	0
55	25288	0.6	0
55	25288	0.7	0
55	25288	0.8	0
55	25288	0.9	0
55	25288	1	0
55	25288	1.1	0
55	25288	1.2	0
55	25288	1.3	0
55	25288	1.4	0
55	25288	1.5	0
55	25288	1.6	0
55	25288	1.7	0
55	25288	1.8	0
55	25288	1.9	0
55	25288	2	0
55	25288	2.1	0
55	25288	2.2	0
55	25288	2.3	0
55	25288	2.4	0
55	25288	2.5	0
55	25288	2.6	0
55	25288	2.7	0
55	25288	2.8	0
55	25288	2.9	0
55	25288	3	0
55	25288	3.1	0
55	25288	3.2	0
55	25288	3.3	0
55	25288	3.4	0
55	25288	3.5	0
55	25288	3.6	0
55	25288	3.7	0
55	25288	3.8	0
55	25288	3.9	0
55	25288	4	0
55	25288	4.1	0
55	25288	4.2	0
55	25288	4.3	0
55	25288	4.4	0
55	25288	4.5	0
55	25288	4.6	0
55	25288	4.7	0
55	25288	4.8	0
55	25288	4.9	0
55	25288	5	0
55	25288	5.1	0
55	25288	5.2	0
55	25288	5.3	0
55	25288	5.4	0
55	25288	5.5	0
55	25288	5.6	0
55	25288	5.7	0
55	25288	5.8	0
55	25288	5.9	0
55	25288	6	0
55	25288	6.1	0
55	25288	6.2	0
55	25288	6.3	0
55	25288	6.4	0
55	25288	6.5	0
55	25288	6.6	0
55	25288	6.7	0
55	25288	6.8	0
55	25288	6.9	0
55	25288	7	0
55	25288	7.1	0
55	25288	7.2	0
55	25288	7.3	0
55	25288	7.4	0
55	25288	7.5	0
55	25288	7.6	0
55	25288	7.7	0
55	25288	7.8	0
55	25288	7.9	0
55	25288	8	0
55	25288	8.1	0
55	25288	8.2	0
55	25288	8.3	0
55	25288	8.4	0
55	25288	8.5	0
55	25288	8.6	0
55	25288	8.7	0
55	25288	8.8	0
55	25288	8.9	0
55	25288	9	0
55	25288	9.1	0
55	25288	9.2	0
55	25288	9.3	0
55	25288	9.4	0
55	25288	9.5	0
55	25288	9.6	0
55	25288	9.7	0
55	25288	9.8	0
55	25288	9.9	0
55	25288	10	0
55	25288	10.1	0
55	25288	10.2	0
55	25288	10.3	0
55	25288	10.4	0
55	25288	10.5	0
55	25288	10.6	0
55	25288	10.7	0
55	25288	10.797901034894	0
57	25288	0.1	0
57	25288	0.2	0
57	25288	0.3	0
57	25288	0.4	0
57	25288	0.5	0
57	25288	0.6	0
57	25288	0.7	0
57	25288	0.8	0
57	25288	0.9	0
57	25288	1	0
57	25288	1.1	0
57	25288	1.2	0
57	25288	1.3	0
57	25288	1.4	0
57	25288	1.5	0
57	25288	1.6	0
57	25288	1.7	0
57	25288	1.8	0
57	25288	1.9	0
57	25288	2	0
57	25288	2.1	0
57	25288	2.2	0
57	25288	2.3	0
57	25288	2.4	0
57	25288	2.5	0
57	25288	2.6	0
57	25288	2.7	0
57	25288	2.8	0
57	25288	2.9	0
57	25288	3	0
57	25288	3.1	0
57	25288	3.2	0
57	25288	3.3	0
57	25288	3.4	0
57	25288	3.5	0
57	25288	3.6	0
57	25288	3.7	0
57	25288	3.8	0
57	25288	3.9	0
57	25288	4	0
57	25288	4.1	0
57	25288	4.2	0
57	25288	4.3	0
57	25288	4.4	0
57	25288	4.5	0
57	25288	4.6	0
57	25288	4.7	0
57	25288	4.8	0
57	25288	4.9	0
57	25288	5	0
57	25288	5.1	0
57	25288	5.2	0
57	25288	5.3	0
57	25288	5.4	0
57	25288	5.5	0
57	25288	5.6	0
57	25288	5.7	0
57	25288	5.8	0
57	25288	5.9	0
57	25288	6	0
57	25288	6.1	0
57	25288	6.2	0
57	25288	6.3	0
57	25288	6.4	0
57	25288	6.5	0
57	25288	6.6	0
57	25288	6.7	0
57	25288	6.8	0
57	25288	6.9	0
57	25288	7	0
57	25288	7.1	0
57	25288	7.2	0
57	25288	7.3	0
57	25288	7.4	0
57	25288	7.5	0
57	25288	7.6	0
57	25288	7.7	0
57	25288	7.8	0
57	25288	7.9	0
57	25288	8	0
57	25288	8.1	0
57	25288	8.2	0
57	25288	8.3	0
57	25288	8.4	0
57	25288	8.5	0
57	25288	8.6	0
57	25288	8.7	0
57	25288	8.8	0
57	25288	8.9	0
57	25288	9	0
57	25288	9.1	0
57	25288	9.2	0
57	25288	9.3	0
57	25288	9.4	0
57	25288	9.5	0
57	25288	9.6	0
57	25288	9.7	0
57	25288	9.8	0
57	25288	9.9	0
57	25288	10	0
57	25288	10.1	0
57	25288	10.2	0
57	25288	10.3	0
57	25288	10.4	0
57	25288	10.5	0
57	25288	10.6	0
57	25288	10.7	0
57	25288	10.797901034894	0
84	25288	3.8	560000
84	25288	3.9	0
84	25288	4	0
84	25288	4.1	0
84	25288	4.2	0
84	25288	4.3	0
84	25288	4.4	0
84	25288	4.5	0
84	25288	4.6	0
84	25288	4.7	0
84	25288	4.8	0
84	25288	4.9	0
84	25288	5	0
84	25288	5.1	0
84	25288	5.2	0
84	25288	5.3	0
84	25288	5.4	0
84	25288	5.5	0
84	25288	5.6	0
84	25288	5.7	0
84	25288	5.8	0
84	25288	5.9	0
84	25288	6	0
84	25288	6.1	0
84	25288	6.2	0
84	25288	6.3	0
84	25288	6.4	0
84	25288	6.5	0
84	25288	6.6	0
84	25288	6.7	0
84	25288	6.8	0
84	25288	6.9	0
84	25288	7	0
84	25288	7.1	0
84	25288	7.2	0
84	25288	7.3	0
84	25288	7.4	0
84	25288	7.5	0
84	25288	7.6	0
84	25288	7.7	0
84	25288	7.8	0
84	25288	7.9	0
84	25288	8	0
84	25288	8.1	0
84	25288	8.2	0
84	25288	8.3	0
84	25288	8.4	0
84	25288	8.5	0
84	25288	8.6	0
84	25288	8.7	0
84	25288	8.8	0
84	25288	8.9	0
84	25288	9	0
84	25288	9.1	0
84	25288	9.2	0
84	25288	9.3	0
84	25288	9.4	0
84	25288	9.5	0
84	25288	9.6	0
84	25288	9.7	0
84	25288	9.8	0
84	25288	9.9	0
84	25288	10	0
84	25288	10.1	0
84	25288	10.2	0
84	25288	10.3	0
84	25288	10.4	0
84	25288	10.5	0
84	25288	10.6	0
84	25288	10.7	0
84	25288	10.797901034894	0
98	25288	3.6	82240
98	25288	3.7	0
98	25288	3.8	0
98	25288	3.9	0
98	25288	4	0
98	25288	4.1	0
98	25288	4.2	0
98	25288	4.3	0
98	25288	4.4	0
98	25288	4.5	0
98	25288	4.6	0
98	25288	4.7	0
98	25288	4.8	0
98	25288	4.9	0
98	25288	5	0
98	25288	5.1	0
98	25288	5.2	0
98	25288	5.3	0
98	25288	5.4	0
98	25288	5.5	0
98	25288	5.6	0
98	25288	5.7	0
98	25288	5.8	0
98	25288	5.9	0
98	25288	6	0
98	25288	6.1	0
98	25288	6.2	0
98	25288	6.3	0
98	25288	6.4	0
98	25288	6.5	0
98	25288	6.6	0
98	25288	6.7	0
98	25288	6.8	0
98	25288	6.9	0
98	25288	7	0
98	25288	7.1	0
98	25288	7.2	0
98	25288	7.3	0
98	25288	7.4	0
98	25288	7.5	0
98	25288	7.6	0
98	25288	7.7	0
98	25288	7.8	0
98	25288	7.9	0
98	25288	8	0
98	25288	8.1	0
98	25288	8.2	0
98	25288	8.3	0
98	25288	8.4	0
98	25288	8.5	0
98	25288	8.6	0
98	25288	8.7	0
98	25288	8.8	0
98	25288	8.9	0
98	25288	9	0
98	25288	9.1	0
98	25288	9.2	0
98	25288	9.3	0
98	25288	9.4	0
98	25288	9.5	0
98	25288	9.6	0
98	25288	9.7	0
98	25288	9.8	0
98	25288	9.9	0
98	25288	10	0
98	25288	10.1	0
98	25288	10.2	0
98	25288	10.3	0
98	25288	10.4	0
98	25288	10.5	0
98	25288	10.6	0
98	25288	10.7	0
98	25288	10.797901034894	0
100	25288	3.7	246720
100	25288	3.8	0
100	25288	3.9	0
100	25288	4	0
100	25288	4.1	0
100	25288	4.2	0
100	25288	4.3	0
100	25288	4.4	0
100	25288	4.5	0
100	25288	4.6	0
100	25288	4.7	0
100	25288	4.8	0
100	25288	4.9	0
100	25288	5	0
100	25288	5.1	0
100	25288	5.2	0
100	25288	5.3	0
100	25288	5.4	0
100	25288	5.5	0
100	25288	5.6	0
100	25288	5.7	0
100	25288	5.8	0
100	25288	5.9	0
100	25288	6	0
100	25288	6.1	0
100	25288	6.2	0
100	25288	6.3	0
100	25288	6.4	0
100	25288	6.5	0
100	25288	6.6	0
100	25288	6.7	0
100	25288	6.8	0
100	25288	6.9	0
100	25288	7	0
100	25288	7.1	0
100	25288	7.2	0
100	25288	7.3	0
100	25288	7.4	0
100	25288	7.5	0
100	25288	7.6	0
100	25288	7.7	0
100	25288	7.8	0
100	25288	7.9	0
100	25288	8	0
100	25288	8.1	0
100	25288	8.2	0
100	25288	8.3	0
100	25288	8.4	0
100	25288	8.5	0
100	25288	8.6	0
100	25288	8.7	0
100	25288	8.8	0
100	25288	8.9	0
100	25288	9	0
100	25288	9.1	0
100	25288	9.2	0
100	25288	9.3	0
100	25288	9.4	0
100	25288	9.5	0
100	25288	9.6	0
100	25288	9.7	0
100	25288	9.8	0
100	25288	9.9	0
100	25288	10	0
100	25288	10.1	0
100	25288	10.2	0
100	25288	10.3	0
100	25288	10.4	0
100	25288	10.5	0
100	25288	10.6	0
100	25288	10.7	0
100	25288	10.797901034894	0
137	25288	0.1	0
137	25288	0.2	0
137	25288	0.3	0
137	25288	0.4	0
137	25288	0.5	0
137	25288	0.6	0
137	25288	0.7	0
137	25288	0.8	0
137	25288	0.9	0
137	25288	1	0
137	25288	1.1	0
137	25288	1.2	0
137	25288	1.3	0
137	25288	1.4	0
137	25288	1.5	0
137	25288	1.6	0
137	25288	1.7	0
137	25288	1.8	0
137	25288	1.9	0
137	25288	2	0
137	25288	2.1	0
137	25288	2.2	0
137	25288	2.3	0
137	25288	2.4	0
137	25288	2.5	0
137	25288	2.6	0
137	25288	2.7	0
137	25288	2.8	0
137	25288	2.9	0
137	25288	3	0
137	25288	3.1	0
137	25288	3.2	0
137	25288	3.3	0
137	25288	3.4	0
137	25288	3.5	0
137	25288	3.6	0
137	25288	3.7	0
137	25288	3.8	0
137	25288	3.9	0
137	25288	4	0
137	25288	4.1	0
137	25288	4.2	0
137	25288	4.3	0
137	25288	4.4	0
137	25288	4.5	0
137	25288	4.6	0
137	25288	4.7	0
137	25288	4.8	0
137	25288	4.9	0
137	25288	5	0
137	25288	5.1	0
137	25288	5.2	0
137	25288	5.3	0
137	25288	5.4	0
137	25288	5.5	0
137	25288	5.6	0
137	25288	5.7	0
137	25288	5.8	0
137	25288	5.9	0
137	25288	6	0
137	25288	6.1	0
137	25288	6.2	0
137	25288	6.3	0
137	25288	6.4	0
137	25288	6.5	0
137	25288	6.6	0
137	25288	6.7	0
137	25288	6.8	0
137	25288	6.9	0
137	25288	7	0
137	25288	7.1	0
137	25288	7.2	0
137	25288	7.3	0
137	25288	7.4	0
137	25288	7.5	0
137	25288	7.6	0
137	25288	7.7	0
137	25288	7.8	0
137	25288	7.9	0
137	25288	8	0
137	25288	8.1	0
137	25288	8.2	0
137	25288	8.3	0
137	25288	8.4	0
137	25288	8.5	0
137	25288	8.6	0
137	25288	8.7	0
137	25288	8.8	0
137	25288	8.9	0
137	25288	9	0
137	25288	9.1	0
137	25288	9.2	0
137	25288	9.3	0
137	25288	9.4	0
137	25288	9.5	0
137	25288	9.6	0
137	25288	9.7	0
137	25288	9.8	0
137	25288	9.9	0
137	25288	10	0
137	25288	10.1	0
137	25288	10.2	0
137	25288	10.3	0
137	25288	10.4	0
137	25288	10.5	0
137	25288	10.6	0
137	25288	10.7	0
137	25288	10.797901034894	0
139	25288	0.1	0
139	25288	0.2	0
139	25288	0.3	0
139	25288	0.4	0
139	25288	0.5	0
139	25288	0.6	0
139	25288	0.7	0
139	25288	0.8	0
139	25288	0.9	0
139	25288	1	0
139	25288	1.1	0
139	25288	1.2	0
139	25288	1.3	0
139	25288	1.4	0
139	25288	1.5	0
139	25288	1.6	0
139	25288	1.7	0
139	25288	1.8	0
139	25288	1.9	0
139	25288	2	0
139	25288	2.1	0
139	25288	2.2	0
139	25288	2.3	0
139	25288	2.4	0
139	25288	2.5	0
139	25288	2.6	0
139	25288	2.7	0
139	25288	2.8	0
139	25288	2.9	0
139	25288	3	0
139	25288	3.1	0
139	25288	3.2	0
139	25288	3.3	0
139	25288	3.4	0
139	25288	3.5	0
139	25288	3.6	0
139	25288	3.7	0
139	25288	3.8	0
139	25288	3.9	0
139	25288	4	0
139	25288	4.1	0
139	25288	4.2	0
139	25288	4.3	0
139	25288	4.4	0
139	25288	4.5	0
139	25288	4.6	0
139	25288	4.7	0
139	25288	4.8	0
139	25288	4.9	0
139	25288	5	0
139	25288	5.1	0
139	25288	5.2	0
139	25288	5.3	0
139	25288	5.4	0
139	25288	5.5	0
139	25288	5.6	0
139	25288	5.7	0
139	25288	5.8	0
139	25288	5.9	0
139	25288	6	0
139	25288	6.1	0
139	25288	6.2	0
139	25288	6.3	0
139	25288	6.4	0
139	25288	6.5	0
139	25288	6.6	0
139	25288	6.7	0
139	25288	6.8	0
139	25288	6.9	0
139	25288	7	0
139	25288	7.1	0
139	25288	7.2	0
139	25288	7.3	0
139	25288	7.4	0
139	25288	7.5	0
139	25288	7.6	0
139	25288	7.7	0
139	25288	7.8	0
139	25288	7.9	0
139	25288	8	0
139	25288	8.1	0
139	25288	8.2	0
139	25288	8.3	0
139	25288	8.4	0
139	25288	8.5	0
139	25288	8.6	0
139	25288	8.7	0
139	25288	8.8	0
139	25288	8.9	0
139	25288	9	0
139	25288	9.1	0
139	25288	9.2	0
139	25288	9.3	0
139	25288	9.4	0
139	25288	9.5	0
139	25288	9.6	0
139	25288	9.7	0
139	25288	9.8	0
139	25288	9.9	0
139	25288	10	0
139	25288	10.1	0
139	25288	10.2	0
139	25288	10.3	0
139	25288	10.4	0
139	25288	10.5	0
139	25288	10.6	0
139	25288	10.7	0
139	25288	10.797901034894	0
176	25288	3.7	328960
176	25288	3.8	0
176	25288	3.9	0
176	25288	4	0
176	25288	4.1	0
176	25288	4.2	0
176	25288	4.3	0
176	25288	4.4	0
176	25288	4.5	0
176	25288	4.6	0
176	25288	4.7	0
176	25288	4.8	0
176	25288	4.9	0
176	25288	5	0
176	25288	5.1	0
176	25288	5.2	0
176	25288	5.3	0
176	25288	5.4	0
176	25288	5.5	0
176	25288	5.6	0
176	25288	5.7	0
176	25288	5.8	0
176	25288	5.9	0
176	25288	6	0
176	25288	6.1	0
176	25288	6.2	0
176	25288	6.3	0
176	25288	6.4	0
176	25288	6.5	0
176	25288	6.6	0
176	25288	6.7	0
176	25288	6.8	0
176	25288	6.9	0
176	25288	7	0
176	25288	7.1	0
176	25288	7.2	0
176	25288	7.3	0
176	25288	7.4	0
176	25288	7.5	0
176	25288	7.6	0
176	25288	7.7	0
176	25288	7.8	0
176	25288	7.9	0
176	25288	8	0
176	25288	8.1	0
176	25288	8.2	0
176	25288	8.3	0
176	25288	8.4	0
176	25288	8.5	0
176	25288	8.6	0
176	25288	8.7	0
176	25288	8.8	0
176	25288	8.9	0
176	25288	9	0
176	25288	9.1	0
176	25288	9.2	0
176	25288	9.3	0
176	25288	9.4	0
176	25288	9.5	0
176	25288	9.6	0
176	25288	9.7	0
176	25288	9.8	0
176	25288	9.9	0
176	25288	10	0
176	25288	10.1	0
176	25288	10.2	0
176	25288	10.3	0
176	25288	10.4	0
176	25288	10.5	0
176	25288	10.6	0
176	25288	10.7	0
176	25288	10.797901034894	0
178	25288	3.8	493440
178	25288	3.9	0
178	25288	4	0
178	25288	4.1	0
178	25288	4.2	0
178	25288	4.3	0
178	25288	4.4	0
178	25288	4.5	0
178	25288	4.6	0
178	25288	4.7	0
178	25288	4.8	0
178	25288	4.9	0
178	25288	5	0
178	25288	5.1	0
178	25288	5.2	0
178	25288	5.3	0
178	25288	5.4	0
178	25288	5.5	0
178	25288	5.6	0
178	25288	5.7	0
178	25288	5.8	0
178	25288	5.9	0
178	25288	6	0
178	25288	6.1	0
178	25288	6.2	0
178	25288	6.3	0
178	25288	6.4	0
178	25288	6.5	0
178	25288	6.6	0
178	25288	6.7	0
178	25288	6.8	0
178	25288	6.9	0
178	25288	7	0
178	25288	7.1	0
178	25288	7.2	0
178	25288	7.3	0
178	25288	7.4	0
178	25288	7.5	0
178	25288	7.6	0
178	25288	7.7	0
178	25288	7.8	0
178	25288	7.9	0
178	25288	8	0
178	25288	8.1	0
178	25288	8.2	0
178	25288	8.3	0
178	25288	8.4	0
178	25288	8.5	0
178	25288	8.6	0
178	25288	8.7	0
178	25288	8.8	0
178	25288	8.9	0
178	25288	9	0
178	25288	9.1	0
178	25288	9.2	0
178	25288	9.3	0
178	25288	9.4	0
178	25288	9.5	0
178	25288	9.6	0
178	25288	9.7	0
178	25288	9.8	0
178	25288	9.9	0
178	25288	10	0
178	25288	10.1	0
178	25288	10.2	0
178	25288	10.3	0
178	25288	10.4	0
178	25288	10.5	0
178	25288	10.6	0
178	25288	10.7	0
178	25288	10.797901034894	0

