version 3
run Wireless14-0-20251123-16:43:34-64471
attr configname Wireless14
attr datetime 20251123-16:43:34
attr datetimef 20251123-164334
attr experiment Wireless14
attr inifile omnetpp.ini
attr iterationvars ""
attr iterationvarsd ""
attr iterationvarsf ""
attr measurement ""
attr network WirelessC
attr processid 64471
attr repetition 0
attr replication #0
attr resultdir results
attr runnumber 0
attr seedset 0
config image-path ../inet4.5/images
config description "Introducing antenna gain"
config extends Wireless13
config *.host*.wlan[0].radio.antenna.typename ConstantGainAntenna
config *.host*.wlan[0].radio.antenna.gain 3dB
config description "Configuring a more accurate pathloss model"
config extends Wireless12
config *.physicalEnvironment.ground.typename FlatGround
config *.physicalEnvironment.ground.elevation 0m
config *.radioMedium.pathLoss.typename TwoRayGroundReflection
config description "Changing to a more realistic radio model"
config extends Wireless11
config *.radioMedium.typename ApskScalarRadioMedium
config *.radioMedium.backgroundNoise.power -90dBm
config *.radioMedium.mediumLimitCache.centerFrequency 2GHz
config *.host*.wlan[0].radio.typename ApskScalarRadio
config *.host*.wlan[0].radio.centerFrequency 2GHz
config *.host*.wlan[0].radio.bandwidth 2MHz
config *.host*.wlan[0].radio.transmitter.power 1.4mW
config *.host*.wlan[0].radio.transmitter.preambleDuration 10us
config *.host*.wlan[0].radio.transmitter.headerLength 8B
config *.host*.wlan[0].radio.receiver.sensitivity -85dBm
config *.host*.wlan[0].radio.receiver.energyDetection -85dBm
config *.host*.wlan[0].radio.receiver.snirThreshold 4dB
config *.hostR1.wlan[*].radio.bitErrorRate.result-recording-modes default,+vector
config description "Adding obstacles to the environment"
config extends Wireless10
config network WirelessC
config *.host*.mobility.initialZ 1.7m
config *.physicalEnvironment.config "xmldoc(\"walls.xml\")"
config *.radioMedium.obstacleLoss.typename IdealObstacleLoss
config description "Configuring ad-hoc routing (AODV)"
config extends Wireless09
config *.configurator.addStaticRoutes false
config *.host*.typename AodvRouter
config *.hostB.wlan[0].radio.displayCommunicationRange true
config *.visualizer.dataLinkVisualizer.packetFilter "\"AODV*\""
config description "Configuring node movements"
config extends Wireless08
config *.hostR*.mobility.typename LinearMobility
config *.hostR*.mobility.speed 12mps
config *.hostR*.mobility.initialMovementHeading 270deg
config *.host*.wlan[0].queue.packetCapacity 10
config *.visualizer.mobilityVisualizer.displayVelocities true
config *.visualizer.mobilityVisualizer.displayMovementTrails true
config description "Modeling energy consumption"
config extends Wireless07
config *.host*.wlan[0].radio.energyConsumer.typename StateBasedEpEnergyConsumer
config *.host*.wlan[0].radio.energyConsumer.offPowerConsumption 0mW
config *.host*.wlan[0].radio.energyConsumer.sleepPowerConsumption 1mW
config *.host*.wlan[0].radio.energyConsumer.switchingPowerConsumption 1mW
config *.host*.wlan[0].radio.energyConsumer.receiverIdlePowerConsumption 2mW
config *.host*.wlan[0].radio.energyConsumer.receiverBusyPowerConsumption 5mW
config *.host*.wlan[0].radio.energyConsumer.receiverReceivingPowerConsumption 10mW
config *.host*.wlan[0].radio.energyConsumer.transmitterIdlePowerConsumption 2mW
config *.host*.wlan[0].radio.energyConsumer.transmitterTransmittingPowerConsumption 100mW
config *.host*.energyStorage.typename IdealEpEnergyStorage
config *.host*.wlan[0].radio.displayInterferenceRange false
config *.hostR1.wlan[0].radio.displayCommunicationRange false
config *.visualizer.mediumVisualizer.displaySignals false
config description "Turning on ACKs in CSMA"
config extends Wireless06
config *.host*.wlan[0].mac.useAck true
config description "Using CSMA to better utilize the medium"
config extends Wireless05
config *.host*.wlan[0].typename WirelessInterface
config *.host*.wlan[0].radio.typename UnitDiskRadio
config *.host*.wlan[0].mac.typename CsmaCaMac
config *.host*.wlan[0].mac.ackTimeout 300us
config *.host*.wlan[0].queue.typename DropTailQueue
config *.host*.wlan[0].queue.packetCapacity -1
config description "Taking interference into account"
config extends Wireless04
config *.host*.wlan[0].radio.receiver.ignoreInterference false
config *.host*.wlan[0].radio.transmitter.interferenceRange 500m
config *.hostA.wlan[0].radio.displayInterferenceRange true
config *.visualizer.dataLinkVisualizer.packetFilter "\"\""
config description "Setting up static routing"
config extends Wireless03
config *.host*.forwarding true
config *.configurator.config "xml(\"<config><interface hosts='**' address='10.0.0.x' netmask='255.255.255.0'/><autoroute metric='errorRate'/></config>\")"
config *.configurator.optimizeRoutes false
config *.host*.ipv4.routingTable.netmaskRoutes "\"\""
config *.visualizer.physicalLinkVisualizer.displayLinks true
config *.visualizer.dataLinkVisualizer.displayLinks true
config *.visualizer.networkRouteVisualizer.displayRoutes true
config *.visualizer.*LinkVisualizer.lineShift 0
config *.visualizer.networkRouteVisualizer.lineShift 0
config *.visualizer.networkRouteVisualizer.packetFilter "\"UDPData*\""
config description "Adding more nodes and decreasing the communication range"
config extends Wireless02
config network WirelessB
config *.host*.wlan[0].radio.transmitter.communicationRange 250m
config *.hostR1.wlan[0].radio.displayCommunicationRange true
config description "Setting up some animations"
config extends Wireless01
config *.hostA.wlan[0].radio.displayCommunicationRange true
config *.visualizer.sceneVisualizer.descriptionFigure "\"title\""
config *.visualizer.mediumVisualizer.displaySignals true
config *.visualizer.physicalLinkVisualizer.displayLinks true
config *.visualizer.physicalLinkVisualizer.packetFilter "\"UDPData*\""
config description "Two hosts communicating wirelessly"
config network WirelessA
config sim-time-limit 20s
config *.host*.ipv4.arp.typename GlobalArp
config *.hostA.numApps 1
config *.hostA.app[0].typename UdpBasicApp
config *.hostA.app[0].destAddresses "\"hostB\""
config *.hostA.app[0].destPort 5000
config *.hostA.app[0].messageLength 1000B
config *.hostA.app[0].sendInterval exponential(12ms)
config *.hostA.app[0].packetName "\"UDPData\""
config *.hostB.numApps 1
config *.hostB.app[0].typename UdpSink
config *.hostB.app[0].localPort 5000
config *.host*.wlan[0].typename AckingWirelessInterface
config *.host*.wlan[0].mac.useAck false
config *.host*.wlan[0].mac.fullDuplex false
config *.host*.wlan[0].radio.transmitter.communicationRange 500m
config *.host*.wlan[0].radio.receiver.ignoreInterference true
config *.host*.wlan[0].mac.headerLength 23B
config *.host*.**.bitrate 1Mbps

par WirelessC.visualizer.sceneVisualizer typename "\"inet.visualizer.canvas.scene.SceneCanvasVisualizer\""
par WirelessC.visualizer.sceneVisualizer visualizationTargetModule "\"^.^\""
par WirelessC.visualizer.sceneVisualizer visualizationSubjectModule "\"^.^\""
par WirelessC.visualizer.sceneVisualizer tags "\"\""
par WirelessC.visualizer.sceneVisualizer physicalEnvironmentModule "\"physicalEnvironment\""
par WirelessC.visualizer.sceneVisualizer networkNodeVisualizerModule "\"^.networkNodeVisualizer\""
par WirelessC.visualizer.sceneVisualizer axisLength "nan m"
attr mutable ""
attr unit m
par WirelessC.visualizer.sceneVisualizer animationSpeed 0
par WirelessC.visualizer.sceneVisualizer sceneMinX "nan m"
attr unit m
par WirelessC.visualizer.sceneVisualizer sceneMinY "nan m"
attr unit m
par WirelessC.visualizer.sceneVisualizer sceneMinZ "nan m"
attr unit m
par WirelessC.visualizer.sceneVisualizer sceneMaxX "nan m"
attr unit m
par WirelessC.visualizer.sceneVisualizer sceneMaxY "nan m"
attr unit m
par WirelessC.visualizer.sceneVisualizer sceneMaxZ "nan m"
attr unit m
par WirelessC.visualizer.sceneVisualizer zIndex 0
par WirelessC.visualizer.sceneVisualizer viewAngle "\"x right y down z out\""
attr mutable ""
par WirelessC.visualizer.sceneVisualizer viewScale "\"1 1\""
attr mutable ""
par WirelessC.visualizer.sceneVisualizer viewTranslation "\"0 0\""
attr mutable ""
par WirelessC.visualizer.sceneVisualizer descriptionFigure "\"title\""
par WirelessC.visualizer.physicalEnvironmentVisualizer typename "\"inet.visualizer.canvas.environment.PhysicalEnvironmentCanvasVisualizer\""
par WirelessC.visualizer.physicalEnvironmentVisualizer visualizationTargetModule "\"^.^\""
par WirelessC.visualizer.physicalEnvironmentVisualizer visualizationSubjectModule "\"^.^\""
par WirelessC.visualizer.physicalEnvironmentVisualizer tags "\"\""
par WirelessC.visualizer.physicalEnvironmentVisualizer physicalEnvironmentModule "\"physicalEnvironment\""
par WirelessC.visualizer.physicalEnvironmentVisualizer displayObjects true
par WirelessC.visualizer.physicalEnvironmentVisualizer zIndex 0
par WirelessC.visualizer.networkNodeVisualizer typename "\"inet.visualizer.canvas.scene.NetworkNodeCanvasVisualizer\""
par WirelessC.visualizer.networkNodeVisualizer visualizationTargetModule "\"^.^\""
par WirelessC.visualizer.networkNodeVisualizer visualizationSubjectModule "\"^.^\""
par WirelessC.visualizer.networkNodeVisualizer tags "\"\""
par WirelessC.visualizer.networkNodeVisualizer nodeFilter "\"*\""
attr mutable ""
par WirelessC.visualizer.networkNodeVisualizer annotationSpacing 4
par WirelessC.visualizer.networkNodeVisualizer placementPenalty 10
par WirelessC.visualizer.networkNodeVisualizer zIndex 0
par WirelessC.visualizer.networkConnectionVisualizer typename "\"inet.visualizer.canvas.scene.NetworkConnectionCanvasVisualizer\""
par WirelessC.visualizer.networkConnectionVisualizer visualizationTargetModule "\"^.^\""
par WirelessC.visualizer.networkConnectionVisualizer visualizationSubjectModule "\"^.^\""
par WirelessC.visualizer.networkConnectionVisualizer tags "\"\""
par WirelessC.visualizer.networkConnectionVisualizer displayNetworkConnections true
par WirelessC.visualizer.networkConnectionVisualizer nodeFilter "\"\""
attr mutable ""
par WirelessC.visualizer.networkConnectionVisualizer lineColor "\"black\""
par WirelessC.visualizer.networkConnectionVisualizer lineStyle "\"solid\""
par WirelessC.visualizer.networkConnectionVisualizer lineWidth 1
par WirelessC.visualizer.networkConnectionVisualizer zIndex 0
par WirelessC.visualizer.mobilityVisualizer typename "\"inet.visualizer.canvas.mobility.MobilityCanvasVisualizer\""
par WirelessC.visualizer.mobilityVisualizer visualizationTargetModule "\"^.^\""
par WirelessC.visualizer.mobilityVisualizer visualizationSubjectModule "\"^.^\""
par WirelessC.visualizer.mobilityVisualizer tags "\"\""
par WirelessC.visualizer.mobilityVisualizer networkNodeVisualizerModule "\"^.networkNodeVisualizer\""
par WirelessC.visualizer.mobilityVisualizer displayMobility true
par WirelessC.visualizer.mobilityVisualizer animationSpeed 0
par WirelessC.visualizer.mobilityVisualizer moduleFilter "\"**.mobility\""
attr mutable ""
par WirelessC.visualizer.mobilityVisualizer displayPositions false
par WirelessC.visualizer.mobilityVisualizer positionCircleRadius 4
par WirelessC.visualizer.mobilityVisualizer positionCircleLineWidth 1
par WirelessC.visualizer.mobilityVisualizer positionCircleLineColor "\"dark\""
par WirelessC.visualizer.mobilityVisualizer positionCircleFillColor "\"dark\""
par WirelessC.visualizer.mobilityVisualizer displayOrientations false
par WirelessC.visualizer.mobilityVisualizer orientationPieRadius 32
par WirelessC.visualizer.mobilityVisualizer orientationPieSize 0.2
par WirelessC.visualizer.mobilityVisualizer orientationPieOpacity 0.25
par WirelessC.visualizer.mobilityVisualizer orientationLineColor "\"black\""
par WirelessC.visualizer.mobilityVisualizer orientationLineStyle "\"solid\""
par WirelessC.visualizer.mobilityVisualizer orientationLineWidth 1
par WirelessC.visualizer.mobilityVisualizer orientationFillColor "\"blue\""
par WirelessC.visualizer.mobilityVisualizer displayVelocities true
par WirelessC.visualizer.mobilityVisualizer velocityArrowScale 1
par WirelessC.visualizer.mobilityVisualizer velocityLineColor "\"black\""
par WirelessC.visualizer.mobilityVisualizer velocityLineStyle "\"solid\""
par WirelessC.visualizer.mobilityVisualizer velocityLineWidth 1
par WirelessC.visualizer.mobilityVisualizer displayMovementTrails true
par WirelessC.visualizer.mobilityVisualizer movementTrailLineColor "\"dark\""
par WirelessC.visualizer.mobilityVisualizer movementTrailLineStyle "\"solid\""
par WirelessC.visualizer.mobilityVisualizer movementTrailLineWidth 1
par WirelessC.visualizer.mobilityVisualizer trailLength 100
par WirelessC.visualizer.mobilityVisualizer zIndex 0
par WirelessC.visualizer.statisticVisualizer typename "\"inet.visualizer.canvas.common.StatisticCanvasVisualizer\""
par WirelessC.visualizer.statisticVisualizer visualizationTargetModule "\"^.^\""
par WirelessC.visualizer.statisticVisualizer visualizationSubjectModule "\"^.^\""
par WirelessC.visualizer.statisticVisualizer tags "\"\""
par WirelessC.visualizer.statisticVisualizer networkNodeVisualizerModule "\"^.networkNodeVisualizer\""
par WirelessC.visualizer.statisticVisualizer displayStatistics true
par WirelessC.visualizer.statisticVisualizer signalName "\"\""
par WirelessC.visualizer.statisticVisualizer statisticName "\"\""
par WirelessC.visualizer.statisticVisualizer statisticUnit "\"\""
par WirelessC.visualizer.statisticVisualizer statisticExpression "\"\""
par WirelessC.visualizer.statisticVisualizer sourceFilter "\"**\""
attr mutable ""
par WirelessC.visualizer.statisticVisualizer format "\"%n: %v %u\""
attr mutable ""
par WirelessC.visualizer.statisticVisualizer unit "\"\""
par WirelessC.visualizer.statisticVisualizer font "\"<default>\""
par WirelessC.visualizer.statisticVisualizer textColor "\"black\""
par WirelessC.visualizer.statisticVisualizer backgroundColor "\"white\""
par WirelessC.visualizer.statisticVisualizer opacity 1
par WirelessC.visualizer.statisticVisualizer placementHint "\"top\""
par WirelessC.visualizer.statisticVisualizer placementPriority 0
par WirelessC.visualizer.statisticVisualizer zIndex 10
par WirelessC.visualizer.statisticVisualizer propertyName "\"\""
par WirelessC.visualizer.statisticVisualizer propertyIndex "\"\""
par WirelessC.visualizer.infoVisualizer typename "\"inet.visualizer.canvas.common.InfoCanvasVisualizer\""
par WirelessC.visualizer.infoVisualizer visualizationTargetModule "\"^.^\""
par WirelessC.visualizer.infoVisualizer visualizationSubjectModule "\"^.^\""
par WirelessC.visualizer.infoVisualizer tags "\"\""
par WirelessC.visualizer.infoVisualizer networkNodeVisualizerModule "\"^.networkNodeVisualizer\""
par WirelessC.visualizer.infoVisualizer displayInfos true
par WirelessC.visualizer.infoVisualizer modules "\"\""
attr mutable ""
par WirelessC.visualizer.infoVisualizer format "\"%t\""
attr mutable ""
par WirelessC.visualizer.infoVisualizer font "\"<default>\""
par WirelessC.visualizer.infoVisualizer textColor "\"black\""
par WirelessC.visualizer.infoVisualizer backgroundColor "\"white\""
par WirelessC.visualizer.infoVisualizer opacity 1
par WirelessC.visualizer.infoVisualizer placementHint "\"top\""
par WirelessC.visualizer.infoVisualizer placementPriority 0
par WirelessC.visualizer.infoVisualizer zIndex 10
par WirelessC.visualizer.energyStorageVisualizer typename "\"inet.visualizer.canvas.power.EnergyStorageCanvasVisualizer\""
par WirelessC.visualizer.energyStorageVisualizer visualizationTargetModule "\"^.^\""
par WirelessC.visualizer.energyStorageVisualizer visualizationSubjectModule "\"^.^\""
par WirelessC.visualizer.energyStorageVisualizer tags "\"\""
par WirelessC.visualizer.energyStorageVisualizer networkNodeVisualizerModule "\"^.networkNodeVisualizer\""
par WirelessC.visualizer.energyStorageVisualizer displayEnergyStorages false
par WirelessC.visualizer.energyStorageVisualizer energyStorageFilter "\"**\""
par WirelessC.visualizer.energyStorageVisualizer color "\"green\""
par WirelessC.visualizer.energyStorageVisualizer width 8
par WirelessC.visualizer.energyStorageVisualizer height 24
par WirelessC.visualizer.energyStorageVisualizer spacing 2
par WirelessC.visualizer.energyStorageVisualizer placementHint "\"right\""
par WirelessC.visualizer.energyStorageVisualizer placementPriority 0
par WirelessC.visualizer.energyStorageVisualizer zIndex 10
par WirelessC.visualizer.mediumVisualizer typename "\"inet.visualizer.canvas.physicallayer.MediumCanvasVisualizer\""
par WirelessC.visualizer.mediumVisualizer visualizationTargetModule "\"^.^\""
par WirelessC.visualizer.mediumVisualizer visualizationSubjectModule "\"^.^\""
par WirelessC.visualizer.mediumVisualizer tags "\"\""
par WirelessC.visualizer.mediumVisualizer mediumModule "\"radioMedium\""
par WirelessC.visualizer.mediumVisualizer networkNodeVisualizerModule "\"^.networkNodeVisualizer\""
par WirelessC.visualizer.mediumVisualizer nodeFilter "\"*\""
attr mutable ""
par WirelessC.visualizer.mediumVisualizer interfaceFilter "\"*\""
attr mutable ""
par WirelessC.visualizer.mediumVisualizer packetFilter "(omnetpp::cValueHolder)holder: \"*\""
attr mutable ""
par WirelessC.visualizer.mediumVisualizer displaySignals false
par WirelessC.visualizer.mediumVisualizer signalColor "\"dark\""
par WirelessC.visualizer.mediumVisualizer signalPropagationAnimationSpeed "nan "
attr mutable ""
par WirelessC.visualizer.mediumVisualizer signalPropagationAnimationTime 1s
attr unit s
par WirelessC.visualizer.mediumVisualizer signalPropagationAdditionalTime 0s
attr unit s
par WirelessC.visualizer.mediumVisualizer signalTransmissionAnimationSpeed "nan "
attr mutable ""
par WirelessC.visualizer.mediumVisualizer signalTransmissionAnimationTime 1s
attr unit s
par WirelessC.visualizer.mediumVisualizer signalAnimationSpeedChangeTimeMode "\"realTime\""
attr enum realTime,animationTime,simulationTime
par WirelessC.visualizer.mediumVisualizer signalAnimationSpeedChangeTime 1s
attr unit s
par WirelessC.visualizer.mediumVisualizer displaySignalDepartures false
par WirelessC.visualizer.mediumVisualizer signalDepartureImage "\"misc/signal_departure.png\""
par WirelessC.visualizer.mediumVisualizer signalDeparturePlacementHint "\"topCenter\""
par WirelessC.visualizer.mediumVisualizer signalDeparturePlacementPriority 1
par WirelessC.visualizer.mediumVisualizer displaySignalArrivals false
par WirelessC.visualizer.mediumVisualizer signalArrivalImage "\"misc/signal_arrival.png\""
par WirelessC.visualizer.mediumVisualizer signalArrivalPlacementHint "\"topCenter\""
par WirelessC.visualizer.mediumVisualizer signalArrivalPlacementPriority -1
par WirelessC.visualizer.mediumVisualizer displayCommunicationRanges false
par WirelessC.visualizer.mediumVisualizer communicationRangeLineColor "\"blue\""
par WirelessC.visualizer.mediumVisualizer communicationRangeLineStyle "\"solid\""
par WirelessC.visualizer.mediumVisualizer communicationRangeLineWidth 1
par WirelessC.visualizer.mediumVisualizer displayInterferenceRanges false
par WirelessC.visualizer.mediumVisualizer interferenceRangeLineColor "\"gray\""
par WirelessC.visualizer.mediumVisualizer interferenceRangeLineStyle "\"solid\""
par WirelessC.visualizer.mediumVisualizer interferenceRangeLineWidth 1
par WirelessC.visualizer.mediumVisualizer autoPowerAxis true
par WirelessC.visualizer.mediumVisualizer signalMinPower "inf dBmW"
attr unit dBmW
par WirelessC.visualizer.mediumVisualizer signalMaxPower 0dBmW
attr unit dBmW
par WirelessC.visualizer.mediumVisualizer signalMinPowerDensity "inf dBmWpMHz"
attr unit dBmWpMHz
par WirelessC.visualizer.mediumVisualizer signalMaxPowerDensity "-inf dBmWpMHz"
attr unit dBmWpMHz
par WirelessC.visualizer.mediumVisualizer autoTimeAxis true
par WirelessC.visualizer.mediumVisualizer signalMinTime 0s
attr unit s
par WirelessC.visualizer.mediumVisualizer signalMaxTime 0s
attr unit s
par WirelessC.visualizer.mediumVisualizer autoFrequencyAxis true
par WirelessC.visualizer.mediumVisualizer signalMinFrequency "inf Hz"
attr unit Hz
par WirelessC.visualizer.mediumVisualizer signalMaxFrequency "-inf Hz"
attr unit Hz
par WirelessC.visualizer.mediumVisualizer displayMainPowerDensityMap false
par WirelessC.visualizer.mediumVisualizer mainPowerDensityMapPixmapDensity 1
par WirelessC.visualizer.mediumVisualizer mainPowerDensityMapMinX 0
par WirelessC.visualizer.mediumVisualizer mainPowerDensityMapMaxX "nan "
par WirelessC.visualizer.mediumVisualizer mainPowerDensityMapMinY 0
par WirelessC.visualizer.mediumVisualizer mainPowerDensityMapMaxY "nan "
par WirelessC.visualizer.mediumVisualizer mainPowerDensityMapZ 0
par WirelessC.visualizer.mediumVisualizer mainPowerDensityMapFigureXTickCount 3
par WirelessC.visualizer.mediumVisualizer mainPowerDensityMapFigureYTickCount 3
par WirelessC.visualizer.mediumVisualizer displayPowerDensityMaps false
par WirelessC.visualizer.mediumVisualizer powerDensityMapMode "\"auto\""
attr enum total,signal,auto
par WirelessC.visualizer.mediumVisualizer powerDensityMapPixelMode "\"mean\""
attr enum sample,partition,mean
par WirelessC.visualizer.mediumVisualizer powerDensityMapApproximationSize 10
par WirelessC.visualizer.mediumVisualizer powerDensityMapCenterFrequency "nan Hz"
attr mutable ""
attr unit Hz
par WirelessC.visualizer.mediumVisualizer powerDensityMapBandwidth 0Hz
attr mutable ""
attr unit Hz
par WirelessC.visualizer.mediumVisualizer powerDensityMapFigureWidth 200
par WirelessC.visualizer.mediumVisualizer powerDensityMapFigureHeight 120
par WirelessC.visualizer.mediumVisualizer powerDensityMapPixmapWidth 200
par WirelessC.visualizer.mediumVisualizer powerDensityMapPixmapHeight 120
par WirelessC.visualizer.mediumVisualizer powerDensityMapZ 0
par WirelessC.visualizer.mediumVisualizer powerDensityMapFigureXTickCount 3
par WirelessC.visualizer.mediumVisualizer powerDensityMapFigureYTickCount 3
par WirelessC.visualizer.mediumVisualizer displaySpectrums false
par WirelessC.visualizer.mediumVisualizer spectrumMode "\"auto\""
attr enum total,signal,auto
par WirelessC.visualizer.mediumVisualizer spectrumFigureWidth 200
par WirelessC.visualizer.mediumVisualizer spectrumFigureHeight 120
par WirelessC.visualizer.mediumVisualizer spectrumFigureXTickCount 3
par WirelessC.visualizer.mediumVisualizer spectrumFigureYTickCount 5
par WirelessC.visualizer.mediumVisualizer spectrumFigureInterpolationSize 5
par WirelessC.visualizer.mediumVisualizer spectrumPlacementHint "\"bottomCenter\""
par WirelessC.visualizer.mediumVisualizer spectrumPlacementPriority -1
par WirelessC.visualizer.mediumVisualizer displaySpectrograms false
par WirelessC.visualizer.mediumVisualizer spectrogramMode "\"auto\""
attr enum total,signal,auto
par WirelessC.visualizer.mediumVisualizer spectrogramPixelMode "\"mean\""
attr enum sample,partition,mean
par WirelessC.visualizer.mediumVisualizer spectrogramFigureWidth 200
par WirelessC.visualizer.mediumVisualizer spectrogramFigureHeight 120
par WirelessC.visualizer.mediumVisualizer spectrogramPixmapWidth 200
par WirelessC.visualizer.mediumVisualizer spectrogramPixmapHeight 120
par WirelessC.visualizer.mediumVisualizer spectrogramFigureXTickCount 3
par WirelessC.visualizer.mediumVisualizer spectrogramFigureYTickCount 5
par WirelessC.visualizer.mediumVisualizer spectrogramPlacementHint "\"bottomCenter\""
par WirelessC.visualizer.mediumVisualizer spectrogramPlacementPriority -1
par WirelessC.visualizer.mediumVisualizer zIndex 0
par WirelessC.visualizer.mediumVisualizer signalShape "\"ring\""
attr enum ring,sphere
par WirelessC.visualizer.mediumVisualizer signalOpacity 0.5
par WirelessC.visualizer.mediumVisualizer signalRingCount 20
par WirelessC.visualizer.mediumVisualizer signalRingSize 50m
attr unit m
par WirelessC.visualizer.mediumVisualizer signalFadingDistance 50m
attr unit m
par WirelessC.visualizer.mediumVisualizer signalFadingFactor 1.2
par WirelessC.visualizer.mediumVisualizer signalWaveCount 20
par WirelessC.visualizer.mediumVisualizer signalWaveLength 50m
attr unit m
par WirelessC.visualizer.mediumVisualizer signalWaveWidth 10m
attr unit m
par WirelessC.visualizer.mediumVisualizer signalWaveFadingAnimationSpeedFactor 1
par WirelessC.visualizer.mediumVisualizer displayCommunicationHeat false
par WirelessC.visualizer.obstacleLossVisualizer typename "\"inet.visualizer.canvas.physicallayer.TracingObstacleLossCanvasVisualizer\""
par WirelessC.visualizer.obstacleLossVisualizer visualizationTargetModule "\"^.^\""
par WirelessC.visualizer.obstacleLossVisualizer visualizationSubjectModule "\"^.^\""
par WirelessC.visualizer.obstacleLossVisualizer tags "\"\""
par WirelessC.visualizer.obstacleLossVisualizer displayIntersections false
par WirelessC.visualizer.obstacleLossVisualizer intersectionLineColor "\"red\""
par WirelessC.visualizer.obstacleLossVisualizer intersectionLineStyle "\"solid\""
par WirelessC.visualizer.obstacleLossVisualizer intersectionLineWidth 1
par WirelessC.visualizer.obstacleLossVisualizer displayFaceNormalVectors false
par WirelessC.visualizer.obstacleLossVisualizer faceNormalLineColor "\"grey\""
par WirelessC.visualizer.obstacleLossVisualizer faceNormalLineStyle "\"solid\""
par WirelessC.visualizer.obstacleLossVisualizer faceNormalLineWidth 1
par WirelessC.visualizer.obstacleLossVisualizer fadeOutMode "\"realTime\""
attr enum realTime,animationTime,simulationTime
par WirelessC.visualizer.obstacleLossVisualizer fadeOutTime 1s
attr unit s
par WirelessC.visualizer.obstacleLossVisualizer fadeOutAnimationSpeed 0
par WirelessC.visualizer.obstacleLossVisualizer zIndex 0
par WirelessC.visualizer.packetDropVisualizer typename "\"inet.visualizer.canvas.common.PacketDropCanvasVisualizer\""
par WirelessC.visualizer.packetDropVisualizer visualizationTargetModule "\"^.^\""
par WirelessC.visualizer.packetDropVisualizer visualizationSubjectModule "\"^.^\""
par WirelessC.visualizer.packetDropVisualizer tags "\"\""
par WirelessC.visualizer.packetDropVisualizer displayPacketDrops false
par WirelessC.visualizer.packetDropVisualizer nodeFilter "\"*\""
attr mutable ""
par WirelessC.visualizer.packetDropVisualizer interfaceFilter "\"*\""
attr mutable ""
par WirelessC.visualizer.packetDropVisualizer packetFilter "(omnetpp::cValueHolder)holder: \"*\""
attr mutable ""
par WirelessC.visualizer.packetDropVisualizer detailsFilter "\"*\""
attr mutable ""
par WirelessC.visualizer.packetDropVisualizer icon "\"msg/packet_s\""
par WirelessC.visualizer.packetDropVisualizer iconTintAmount 1
par WirelessC.visualizer.packetDropVisualizer iconTintColor "\"dark\""
par WirelessC.visualizer.packetDropVisualizer labelFormat "\"%n\""
attr mutable ""
par WirelessC.visualizer.packetDropVisualizer labelFont "\"<default>\""
par WirelessC.visualizer.packetDropVisualizer labelColor "\"black\""
par WirelessC.visualizer.packetDropVisualizer fadeOutMode "\"realTime\""
attr enum realTime,animationTime,simulationTime
par WirelessC.visualizer.packetDropVisualizer fadeOutTime 1s
attr unit s
par WirelessC.visualizer.packetDropVisualizer fadeOutAnimationSpeed 0
par WirelessC.visualizer.packetDropVisualizer zIndex 10
par WirelessC.visualizer.packetDropVisualizer dx 32
par WirelessC.visualizer.packetDropVisualizer dy 64
par WirelessC.visualizer.packetFlowVisualizer typename "\"inet.visualizer.canvas.flow.PacketFlowCanvasVisualizer\""
par WirelessC.visualizer.packetFlowVisualizer visualizationTargetModule "\"^.^\""
par WirelessC.visualizer.packetFlowVisualizer visualizationSubjectModule "\"^.^\""
par WirelessC.visualizer.packetFlowVisualizer tags "\"\""
par WirelessC.visualizer.packetFlowVisualizer displayRoutes false
par WirelessC.visualizer.packetFlowVisualizer startPathSignal "\"packetFlowStarted\""
par WirelessC.visualizer.packetFlowVisualizer extendPathSignal "\"packetReceivedFromLower\""
par WirelessC.visualizer.packetFlowVisualizer endPathSignal "\"packetFlowEnded\""
par WirelessC.visualizer.packetFlowVisualizer nodeFilter "\"*\""
attr mutable ""
par WirelessC.visualizer.packetFlowVisualizer packetFilter "(omnetpp::cValueHolder)holder: \"*\""
attr mutable ""
par WirelessC.visualizer.packetFlowVisualizer lineColor "\"dark\""
par WirelessC.visualizer.packetFlowVisualizer lineStyle "\"dashed\""
par WirelessC.visualizer.packetFlowVisualizer lineWidth 3
par WirelessC.visualizer.packetFlowVisualizer lineSmooth false
par WirelessC.visualizer.packetFlowVisualizer lineShift 16
par WirelessC.visualizer.packetFlowVisualizer lineShiftMode "\"normal\""
par WirelessC.visualizer.packetFlowVisualizer lineContactSpacing 3
par WirelessC.visualizer.packetFlowVisualizer lineContactMode "\"rectangular\""
attr enum circular,rectangular
par WirelessC.visualizer.packetFlowVisualizer labelFormat "\"%L %p pk (%l)\""
par WirelessC.visualizer.packetFlowVisualizer labelFont "\"<default>, 8px\""
par WirelessC.visualizer.packetFlowVisualizer labelColor "\"\""
par WirelessC.visualizer.packetFlowVisualizer fadeOutMode "\"realTime\""
attr enum realTime,animationTime,simulationTime
par WirelessC.visualizer.packetFlowVisualizer fadeOutTime 0s
attr unit s
par WirelessC.visualizer.packetFlowVisualizer fadeOutAnimationSpeed 0
par WirelessC.visualizer.packetFlowVisualizer zIndex 4
par WirelessC.visualizer.queueVisualizer typename "\"inet.visualizer.canvas.common.QueueCanvasVisualizer\""
par WirelessC.visualizer.queueVisualizer visualizationTargetModule "\"^.^\""
par WirelessC.visualizer.queueVisualizer visualizationSubjectModule "\"^.^\""
par WirelessC.visualizer.queueVisualizer tags "\"\""
par WirelessC.visualizer.queueVisualizer networkNodeVisualizerModule "\"^.networkNodeVisualizer\""
par WirelessC.visualizer.queueVisualizer displayQueues false
par WirelessC.visualizer.queueVisualizer queueFilter "\"**\""
par WirelessC.visualizer.queueVisualizer color "\"blue\""
par WirelessC.visualizer.queueVisualizer width 8
par WirelessC.visualizer.queueVisualizer height 24
par WirelessC.visualizer.queueVisualizer spacing 2
par WirelessC.visualizer.queueVisualizer placementHint "\"right\""
par WirelessC.visualizer.queueVisualizer placementPriority 0
par WirelessC.visualizer.queueVisualizer zIndex 10
par WirelessC.visualizer.gateScheduleVisualizer typename "\"inet.visualizer.canvas.common.GateScheduleCanvasVisualizer\""
par WirelessC.visualizer.gateScheduleVisualizer visualizationTargetModule "\"^.^\""
par WirelessC.visualizer.gateScheduleVisualizer visualizationSubjectModule "\"^.^\""
par WirelessC.visualizer.gateScheduleVisualizer tags "\"\""
par WirelessC.visualizer.gateScheduleVisualizer networkNodeVisualizerModule "\"^.networkNodeVisualizer\""
par WirelessC.visualizer.gateScheduleVisualizer displayGateSchedules false
par WirelessC.visualizer.gateScheduleVisualizer labelFormat "\"%i %D\""
par WirelessC.visualizer.gateScheduleVisualizer gateFilter "\"**\""
par WirelessC.visualizer.gateScheduleVisualizer width 100
par WirelessC.visualizer.gateScheduleVisualizer height 8
par WirelessC.visualizer.gateScheduleVisualizer spacing 2
par WirelessC.visualizer.gateScheduleVisualizer placementHint "\"right\""
par WirelessC.visualizer.gateScheduleVisualizer placementPriority 0
par WirelessC.visualizer.gateScheduleVisualizer displayDuration 0s
attr mutable ""
attr unit s
par WirelessC.visualizer.gateScheduleVisualizer currentTimePosition 50
par WirelessC.visualizer.gateScheduleVisualizer zIndex 10
par WirelessC.visualizer.radioVisualizer typename "\"inet.visualizer.canvas.physicallayer.RadioCanvasVisualizer\""
par WirelessC.visualizer.radioVisualizer visualizationTargetModule "\"^.^\""
par WirelessC.visualizer.radioVisualizer visualizationSubjectModule "\"^.^\""
par WirelessC.visualizer.radioVisualizer tags "\"\""
par WirelessC.visualizer.radioVisualizer networkNodeVisualizerModule "\"^.networkNodeVisualizer\""
par WirelessC.visualizer.radioVisualizer displayRadios false
par WirelessC.visualizer.radioVisualizer displayRadioMode true
par WirelessC.visualizer.radioVisualizer displayReceptionState true
par WirelessC.visualizer.radioVisualizer displayTransmissionState true
par WirelessC.visualizer.radioVisualizer displayAntennaLobes false
par WirelessC.visualizer.radioVisualizer radioFilter "\"**\""
attr mutable ""
par WirelessC.visualizer.radioVisualizer radioModeImages "\"block/process_vs block/timer_vs block/wrx_vs block/wtx_vs block/wrxtx_vs block/cogwheel_vs\""
par WirelessC.visualizer.radioVisualizer receptionStateImages "\"- - misc/receiving misc/receiving\""
par WirelessC.visualizer.radioVisualizer transmissionStateImages "\"- - misc/transmitting\""
par WirelessC.visualizer.radioVisualizer width 16
par WirelessC.visualizer.radioVisualizer height 16
par WirelessC.visualizer.radioVisualizer placementHint "\"bottomRight\""
par WirelessC.visualizer.radioVisualizer placementPriority 0
par WirelessC.visualizer.radioVisualizer antennaLobeNormalize false
par WirelessC.visualizer.radioVisualizer antennaLobeRelativeLabels false
par WirelessC.visualizer.radioVisualizer antennaLobePlaneGlobal true
par WirelessC.visualizer.radioVisualizer antennaLobePlane "\"view\""
attr enum view,xy,xz,yz
par WirelessC.visualizer.radioVisualizer antennaLobeMode "\"logarithmic\""
attr enum logarithmic,linear
par WirelessC.visualizer.radioVisualizer antennaLobeLogarithmicBase 10
par WirelessC.visualizer.radioVisualizer antennaLobeLogarithmicScale 100
par WirelessC.visualizer.radioVisualizer antennaLobeRadius 100
par WirelessC.visualizer.radioVisualizer antennaLobeStep 10deg
attr unit deg
par WirelessC.visualizer.radioVisualizer antennaLobeOpacity 0.25
par WirelessC.visualizer.radioVisualizer antennaLobeLineSmooth true
par WirelessC.visualizer.radioVisualizer antennaLobeLineColor "\"black\""
par WirelessC.visualizer.radioVisualizer antennaLobeLineStyle "\"solid\""
par WirelessC.visualizer.radioVisualizer antennaLobeLineWidth 1
par WirelessC.visualizer.radioVisualizer antennaLobeFillColor "\"white\""
par WirelessC.visualizer.radioVisualizer zIndex 10
par WirelessC.visualizer.physicalLinkVisualizer typename "\"inet.visualizer.canvas.physicallayer.PhysicalLinkCanvasVisualizer\""
par WirelessC.visualizer.physicalLinkVisualizer visualizationTargetModule "\"^.^\""
par WirelessC.visualizer.physicalLinkVisualizer visualizationSubjectModule "\"^.^\""
par WirelessC.visualizer.physicalLinkVisualizer tags "\"\""
par WirelessC.visualizer.physicalLinkVisualizer displayLinks true
par WirelessC.visualizer.physicalLinkVisualizer activityLevel "\"service\""
attr enum service,peer,protocol
par WirelessC.visualizer.physicalLinkVisualizer nodeFilter "\"*\""
attr mutable ""
par WirelessC.visualizer.physicalLinkVisualizer interfaceFilter "\"*\""
attr mutable ""
par WirelessC.visualizer.physicalLinkVisualizer packetFilter "(omnetpp::cValueHolder)holder: \"UDPData*\""
attr mutable ""
par WirelessC.visualizer.physicalLinkVisualizer lineColor "\"olive\""
par WirelessC.visualizer.physicalLinkVisualizer lineStyle "\"dotted\""
par WirelessC.visualizer.physicalLinkVisualizer lineWidth 3
par WirelessC.visualizer.physicalLinkVisualizer lineShift 0
par WirelessC.visualizer.physicalLinkVisualizer lineShiftMode "\"normal\""
par WirelessC.visualizer.physicalLinkVisualizer lineContactSpacing 3
par WirelessC.visualizer.physicalLinkVisualizer lineContactMode "\"rectangular\""
attr enum circular,rectangular
par WirelessC.visualizer.physicalLinkVisualizer labelFormat "\"%n\""
par WirelessC.visualizer.physicalLinkVisualizer labelFont "\"<default>, 8px\""
par WirelessC.visualizer.physicalLinkVisualizer labelColor "\"olive\""
par WirelessC.visualizer.physicalLinkVisualizer fadeOutMode "\"realTime\""
attr enum realTime,animationTime,simulationTime
par WirelessC.visualizer.physicalLinkVisualizer fadeOutTime 1s
attr unit s
par WirelessC.visualizer.physicalLinkVisualizer fadeOutAnimationSpeed 0
par WirelessC.visualizer.physicalLinkVisualizer holdAnimationTime 0s
attr unit s
par WirelessC.visualizer.physicalLinkVisualizer zIndex 1
par WirelessC.visualizer.interfaceTableVisualizer typename "\"inet.visualizer.canvas.linklayer.InterfaceTableCanvasVisualizer\""
par WirelessC.visualizer.interfaceTableVisualizer visualizationTargetModule "\"^.^\""
par WirelessC.visualizer.interfaceTableVisualizer visualizationSubjectModule "\"^.^\""
par WirelessC.visualizer.interfaceTableVisualizer tags "\"\""
par WirelessC.visualizer.interfaceTableVisualizer networkNodeVisualizerModule "\"^.networkNodeVisualizer\""
par WirelessC.visualizer.interfaceTableVisualizer displayInterfaceTables false
par WirelessC.visualizer.interfaceTableVisualizer displayWiredInterfacesAtConnections true
par WirelessC.visualizer.interfaceTableVisualizer displayBackground false
par WirelessC.visualizer.interfaceTableVisualizer nodeFilter "\"*\""
attr mutable ""
par WirelessC.visualizer.interfaceTableVisualizer interfaceFilter "\"not(lo*)\""
attr mutable ""
par WirelessC.visualizer.interfaceTableVisualizer format "\"%N %\\\\%a%/%l\""
attr mutable ""
par WirelessC.visualizer.interfaceTableVisualizer placementHint "\"top\""
par WirelessC.visualizer.interfaceTableVisualizer placementPriority 0
par WirelessC.visualizer.interfaceTableVisualizer font "\"<default>\""
par WirelessC.visualizer.interfaceTableVisualizer textColor "\"#005030\""
par WirelessC.visualizer.interfaceTableVisualizer backgroundColor "\"white\""
par WirelessC.visualizer.interfaceTableVisualizer opacity 1
par WirelessC.visualizer.interfaceTableVisualizer zIndex 10
par WirelessC.visualizer.dataLinkVisualizer typename "\"inet.visualizer.canvas.linklayer.DataLinkCanvasVisualizer\""
par WirelessC.visualizer.dataLinkVisualizer visualizationTargetModule "\"^.^\""
par WirelessC.visualizer.dataLinkVisualizer visualizationSubjectModule "\"^.^\""
par WirelessC.visualizer.dataLinkVisualizer tags "\"\""
par WirelessC.visualizer.dataLinkVisualizer displayLinks true
par WirelessC.visualizer.dataLinkVisualizer activityLevel "\"service\""
attr enum service,peer,protocol
par WirelessC.visualizer.dataLinkVisualizer nodeFilter "\"*\""
attr mutable ""
par WirelessC.visualizer.dataLinkVisualizer interfaceFilter "\"*\""
attr mutable ""
par WirelessC.visualizer.dataLinkVisualizer packetFilter "(omnetpp::cValueHolder)holder: \"AODV*\""
attr mutable ""
par WirelessC.visualizer.dataLinkVisualizer lineColor "\"darkcyan\""
par WirelessC.visualizer.dataLinkVisualizer lineStyle "\"solid\""
par WirelessC.visualizer.dataLinkVisualizer lineWidth 3
par WirelessC.visualizer.dataLinkVisualizer lineShift 0
par WirelessC.visualizer.dataLinkVisualizer lineShiftMode "\"normal\""
par WirelessC.visualizer.dataLinkVisualizer lineContactSpacing 3
par WirelessC.visualizer.dataLinkVisualizer lineContactMode "\"rectangular\""
attr enum circular,rectangular
par WirelessC.visualizer.dataLinkVisualizer labelFormat "\"%n\""
par WirelessC.visualizer.dataLinkVisualizer labelFont "\"<default>, 8px\""
par WirelessC.visualizer.dataLinkVisualizer labelColor "\"darkcyan\""
par WirelessC.visualizer.dataLinkVisualizer fadeOutMode "\"realTime\""
attr enum realTime,animationTime,simulationTime
par WirelessC.visualizer.dataLinkVisualizer fadeOutTime 1s
attr unit s
par WirelessC.visualizer.dataLinkVisualizer fadeOutAnimationSpeed 0
par WirelessC.visualizer.dataLinkVisualizer holdAnimationTime 0s
attr unit s
par WirelessC.visualizer.dataLinkVisualizer zIndex 2
par WirelessC.visualizer.linkBreakVisualizer typename "\"inet.visualizer.canvas.linklayer.LinkBreakCanvasVisualizer\""
par WirelessC.visualizer.linkBreakVisualizer visualizationTargetModule "\"^.^\""
par WirelessC.visualizer.linkBreakVisualizer visualizationSubjectModule "\"^.^\""
par WirelessC.visualizer.linkBreakVisualizer tags "\"\""
par WirelessC.visualizer.linkBreakVisualizer displayLinkBreaks false
par WirelessC.visualizer.linkBreakVisualizer nodeFilter "\"*\""
attr mutable ""
par WirelessC.visualizer.linkBreakVisualizer interfaceFilter "\"*\""
attr mutable ""
par WirelessC.visualizer.linkBreakVisualizer packetFilter "(omnetpp::cValueHolder)holder: \"*\""
attr mutable ""
par WirelessC.visualizer.linkBreakVisualizer icon "\"status/stop\""
par WirelessC.visualizer.linkBreakVisualizer iconTintAmount 0
par WirelessC.visualizer.linkBreakVisualizer iconTintColor "\"\""
par WirelessC.visualizer.linkBreakVisualizer fadeOutMode "\"realTime\""
attr enum realTime,animationTime,simulationTime
par WirelessC.visualizer.linkBreakVisualizer fadeOutTime 1s
attr unit s
par WirelessC.visualizer.linkBreakVisualizer fadeOutAnimationSpeed 0
par WirelessC.visualizer.linkBreakVisualizer zIndex 2
par WirelessC.visualizer.ieee80211Visualizer typename "\"inet.visualizer.canvas.linklayer.Ieee80211CanvasVisualizer\""
par WirelessC.visualizer.ieee80211Visualizer visualizationTargetModule "\"^.^\""
par WirelessC.visualizer.ieee80211Visualizer visualizationSubjectModule "\"^.^\""
par WirelessC.visualizer.ieee80211Visualizer tags "\"\""
par WirelessC.visualizer.ieee80211Visualizer networkNodeVisualizerModule "\"^.networkNodeVisualizer\""
par WirelessC.visualizer.ieee80211Visualizer displayAssociations false
par WirelessC.visualizer.ieee80211Visualizer nodeFilter "\"*\""
attr mutable ""
par WirelessC.visualizer.ieee80211Visualizer interfaceFilter "\"*\""
attr mutable ""
par WirelessC.visualizer.ieee80211Visualizer minPower -85dBm
attr unit dBm
par WirelessC.visualizer.ieee80211Visualizer maxPower -50dBm
attr unit dBm
par WirelessC.visualizer.ieee80211Visualizer icons "\"misc/signal_power_0 misc/signal_power_1 misc/signal_power_2 misc/signal_power_3\""
par WirelessC.visualizer.ieee80211Visualizer iconColor "\"dark\""
par WirelessC.visualizer.ieee80211Visualizer labelFont "\"<default>\""
par WirelessC.visualizer.ieee80211Visualizer labelColor "\"black\""
par WirelessC.visualizer.ieee80211Visualizer placementHint "\"top\""
par WirelessC.visualizer.ieee80211Visualizer placementPriority 0
par WirelessC.visualizer.ieee80211Visualizer zIndex 2
par WirelessC.visualizer.networkRouteVisualizer typename "\"inet.visualizer.canvas.networklayer.NetworkRouteCanvasVisualizer\""
par WirelessC.visualizer.networkRouteVisualizer visualizationTargetModule "\"^.^\""
par WirelessC.visualizer.networkRouteVisualizer visualizationSubjectModule "\"^.^\""
par WirelessC.visualizer.networkRouteVisualizer tags "\"\""
par WirelessC.visualizer.networkRouteVisualizer displayRoutes true
par WirelessC.visualizer.networkRouteVisualizer startPathSignal "\"packetReceivedFromUpper\""
par WirelessC.visualizer.networkRouteVisualizer extendPathSignal "\"packetReceivedFromLower\""
par WirelessC.visualizer.networkRouteVisualizer endPathSignal "\"packetSentToUpper\""
par WirelessC.visualizer.networkRouteVisualizer nodeFilter "\"*\""
attr mutable ""
par WirelessC.visualizer.networkRouteVisualizer packetFilter "(omnetpp::cValueHolder)holder: \"UDPData*\""
attr mutable ""
par WirelessC.visualizer.networkRouteVisualizer lineColor "\"dark\""
par WirelessC.visualizer.networkRouteVisualizer lineStyle "\"solid\""
par WirelessC.visualizer.networkRouteVisualizer lineWidth 3
par WirelessC.visualizer.networkRouteVisualizer lineSmooth false
par WirelessC.visualizer.networkRouteVisualizer lineShift 0
par WirelessC.visualizer.networkRouteVisualizer lineShiftMode "\"normal\""
par WirelessC.visualizer.networkRouteVisualizer lineContactSpacing 3
par WirelessC.visualizer.networkRouteVisualizer lineContactMode "\"rectangular\""
attr enum circular,rectangular
par WirelessC.visualizer.networkRouteVisualizer labelFormat "\"%n\""
par WirelessC.visualizer.networkRouteVisualizer labelFont "\"<default>, 8px\""
par WirelessC.visualizer.networkRouteVisualizer labelColor "\"\""
par WirelessC.visualizer.networkRouteVisualizer fadeOutMode "\"realTime\""
attr enum realTime,animationTime,simulationTime
par WirelessC.visualizer.networkRouteVisualizer fadeOutTime 1s
attr unit s
par WirelessC.visualizer.networkRouteVisualizer fadeOutAnimationSpeed 0
par WirelessC.visualizer.networkRouteVisualizer zIndex 3
par WirelessC.visualizer.routingTableVisualizer typename "\"inet.visualizer.canvas.networklayer.RoutingTableCanvasVisualizer\""
par WirelessC.visualizer.routingTableVisualizer visualizationTargetModule "\"^.^\""
par WirelessC.visualizer.routingTableVisualizer visualizationSubjectModule "\"^.^\""
par WirelessC.visualizer.routingTableVisualizer tags "\"\""
par WirelessC.visualizer.routingTableVisualizer displayRoutingTables false
par WirelessC.visualizer.routingTableVisualizer displayRoutesIndividually true
par WirelessC.visualizer.routingTableVisualizer displayLabels true
par WirelessC.visualizer.routingTableVisualizer destinationFilter "\"*\""
attr mutable ""
par WirelessC.visualizer.routingTableVisualizer nodeFilter "\"*\""
attr mutable ""
par WirelessC.visualizer.routingTableVisualizer lineColor "\"black\""
par WirelessC.visualizer.routingTableVisualizer lineStyle "\"solid\""
par WirelessC.visualizer.routingTableVisualizer lineWidth 2
par WirelessC.visualizer.routingTableVisualizer lineShift 16
par WirelessC.visualizer.routingTableVisualizer lineShiftMode "\"normal\""
par WirelessC.visualizer.routingTableVisualizer lineContactSpacing 3
par WirelessC.visualizer.routingTableVisualizer lineContactMode "\"rectangular\""
attr enum circular,rectangular
par WirelessC.visualizer.routingTableVisualizer labelFormat "\"%d/%m -> %g (%n)\""
attr mutable ""
par WirelessC.visualizer.routingTableVisualizer labelFont "\"<default>, 8px\""
par WirelessC.visualizer.routingTableVisualizer labelColor "\"black\""
par WirelessC.visualizer.routingTableVisualizer zIndex 0
par WirelessC.visualizer.transportRouteVisualizer typename "\"inet.visualizer.canvas.transportlayer.TransportRouteCanvasVisualizer\""
par WirelessC.visualizer.transportRouteVisualizer visualizationTargetModule "\"^.^\""
par WirelessC.visualizer.transportRouteVisualizer visualizationSubjectModule "\"^.^\""
par WirelessC.visualizer.transportRouteVisualizer tags "\"\""
par WirelessC.visualizer.transportRouteVisualizer displayRoutes false
par WirelessC.visualizer.transportRouteVisualizer startPathSignal "\"packetReceivedFromUpper\""
par WirelessC.visualizer.transportRouteVisualizer extendPathSignal "\"packetReceivedFromLower\""
par WirelessC.visualizer.transportRouteVisualizer endPathSignal "\"packetSentToUpper\""
par WirelessC.visualizer.transportRouteVisualizer nodeFilter "\"*\""
attr mutable ""
par WirelessC.visualizer.transportRouteVisualizer packetFilter "(omnetpp::cValueHolder)holder: \"*\""
attr mutable ""
par WirelessC.visualizer.transportRouteVisualizer lineColor "\"dark\""
par WirelessC.visualizer.transportRouteVisualizer lineStyle "\"solid\""
par WirelessC.visualizer.transportRouteVisualizer lineWidth 3
par WirelessC.visualizer.transportRouteVisualizer lineSmooth false
par WirelessC.visualizer.transportRouteVisualizer lineShift 16
par WirelessC.visualizer.transportRouteVisualizer lineShiftMode "\"normal\""
par WirelessC.visualizer.transportRouteVisualizer lineContactSpacing 3
par WirelessC.visualizer.transportRouteVisualizer lineContactMode "\"rectangular\""
attr enum circular,rectangular
par WirelessC.visualizer.transportRouteVisualizer labelFormat "\"%n\""
par WirelessC.visualizer.transportRouteVisualizer labelFont "\"<default>, 8px\""
par WirelessC.visualizer.transportRouteVisualizer labelColor "\"\""
par WirelessC.visualizer.transportRouteVisualizer fadeOutMode "\"realTime\""
attr enum realTime,animationTime,simulationTime
par WirelessC.visualizer.transportRouteVisualizer fadeOutTime 1s
attr unit s
par WirelessC.visualizer.transportRouteVisualizer fadeOutAnimationSpeed 0
par WirelessC.visualizer.transportRouteVisualizer zIndex 4
par WirelessC.visualizer.transportConnectionVisualizer typename "\"inet.visualizer.canvas.transportlayer.TransportConnectionCanvasVisualizer\""
par WirelessC.visualizer.transportConnectionVisualizer visualizationTargetModule "\"^.^\""
par WirelessC.visualizer.transportConnectionVisualizer visualizationSubjectModule "\"^.^\""
par WirelessC.visualizer.transportConnectionVisualizer tags "\"\""
par WirelessC.visualizer.transportConnectionVisualizer networkNodeVisualizerModule "\"^.networkNodeVisualizer\""
par WirelessC.visualizer.transportConnectionVisualizer displayTransportConnections false
par WirelessC.visualizer.transportConnectionVisualizer sourceNodeFilter "\"*\""
attr mutable ""
par WirelessC.visualizer.transportConnectionVisualizer sourcePortFilter "\"*\""
attr mutable ""
par WirelessC.visualizer.transportConnectionVisualizer destinationNodeFilter "\"*\""
attr mutable ""
par WirelessC.visualizer.transportConnectionVisualizer destinationPortFilter "\"*\""
attr mutable ""
par WirelessC.visualizer.transportConnectionVisualizer icon "\"misc/marker_s\""
par WirelessC.visualizer.transportConnectionVisualizer iconColor "\"dark\""
par WirelessC.visualizer.transportConnectionVisualizer labelFont "\"<default>\""
par WirelessC.visualizer.transportConnectionVisualizer labelColor "\"black\""
par WirelessC.visualizer.transportConnectionVisualizer placementHint "\"top\""
par WirelessC.visualizer.transportConnectionVisualizer placementPriority 0
par WirelessC.visualizer.transportConnectionVisualizer zIndex 4
par WirelessC.visualizer.failureProtectionConfigurationVisualizer typename "\"inet.visualizer.canvas.configurator.FailureProtectionConfigurationCanvasVisualizer\""
par WirelessC.visualizer.failureProtectionConfigurationVisualizer visualizationTargetModule "\"^.^\""
par WirelessC.visualizer.failureProtectionConfigurationVisualizer visualizationSubjectModule "\"^.^\""
par WirelessC.visualizer.failureProtectionConfigurationVisualizer tags "\"\""
par WirelessC.visualizer.failureProtectionConfigurationVisualizer displayTrees false
par WirelessC.visualizer.failureProtectionConfigurationVisualizer lineColor "\"dark\""
par WirelessC.visualizer.failureProtectionConfigurationVisualizer lineStyle "\"solid\""
par WirelessC.visualizer.failureProtectionConfigurationVisualizer lineWidth 3
par WirelessC.visualizer.failureProtectionConfigurationVisualizer lineSmooth false
par WirelessC.visualizer.failureProtectionConfigurationVisualizer lineShift 16
par WirelessC.visualizer.failureProtectionConfigurationVisualizer lineShiftMode "\"normal\""
par WirelessC.visualizer.failureProtectionConfigurationVisualizer lineContactSpacing 3
par WirelessC.visualizer.failureProtectionConfigurationVisualizer lineContactMode "\"rectangular\""
attr enum circular,rectangular
par WirelessC.visualizer.failureProtectionConfigurationVisualizer failureProtectionConfiguratorModule "\"failureProtectionConfigurator\""
par WirelessC.visualizer.failureProtectionConfigurationVisualizer streamFilter "\"*\""
par WirelessC.visualizer.failureProtectionConfigurationVisualizer zIndex 3
par WirelessC.visualizer.streamRedundancyConfigurationVisualizer typename "\"inet.visualizer.canvas.configurator.StreamRedundancyConfigurationCanvasVisualizer\""
par WirelessC.visualizer.streamRedundancyConfigurationVisualizer visualizationTargetModule "\"^.^\""
par WirelessC.visualizer.streamRedundancyConfigurationVisualizer visualizationSubjectModule "\"^.^\""
par WirelessC.visualizer.streamRedundancyConfigurationVisualizer tags "\"\""
par WirelessC.visualizer.streamRedundancyConfigurationVisualizer displayTrees false
par WirelessC.visualizer.streamRedundancyConfigurationVisualizer lineColor "\"dark\""
par WirelessC.visualizer.streamRedundancyConfigurationVisualizer lineStyle "\"solid\""
par WirelessC.visualizer.streamRedundancyConfigurationVisualizer lineWidth 3
par WirelessC.visualizer.streamRedundancyConfigurationVisualizer lineSmooth false
par WirelessC.visualizer.streamRedundancyConfigurationVisualizer lineShift 16
par WirelessC.visualizer.streamRedundancyConfigurationVisualizer lineShiftMode "\"normal\""
par WirelessC.visualizer.streamRedundancyConfigurationVisualizer lineContactSpacing 3
par WirelessC.visualizer.streamRedundancyConfigurationVisualizer lineContactMode "\"rectangular\""
attr enum circular,rectangular
par WirelessC.visualizer.streamRedundancyConfigurationVisualizer streamRedundancyConfiguratorModule "\"streamRedundancyConfigurator\""
par WirelessC.visualizer.streamRedundancyConfigurationVisualizer streamFilter "\"*\""
par WirelessC.visualizer.streamRedundancyConfigurationVisualizer zIndex 3
par WirelessC.visualizer typename "\"inet.visualizer.canvas.integrated.IntegratedCanvasVisualizer\""
par WirelessC.configurator typename "\"inet.networklayer.configurator.ipv4.Ipv4NetworkConfigurator\""
par WirelessC.configurator minLinkWeight 0.001
par WirelessC.configurator configureIsolatedNetworksSeparatly false
par WirelessC.configurator config "<config>...</config> at content:1"
par WirelessC.configurator assignAddresses true
par WirelessC.configurator assignUniqueAddresses true
par WirelessC.configurator assignDisjunctSubnetAddresses true
par WirelessC.configurator addStaticRoutes false
par WirelessC.configurator addDefaultRoutes true
par WirelessC.configurator addSubnetRoutes true
par WirelessC.configurator addDirectRoutes true
par WirelessC.configurator optimizeRoutes false
par WirelessC.configurator dumpTopology false
par WirelessC.configurator dumpLinks false
par WirelessC.configurator dumpAddresses false
par WirelessC.configurator dumpRoutes false
par WirelessC.configurator dumpConfig "\"\""
par WirelessC.radioMedium.propagation typename "\"inet.physicallayer.wireless.common.propagation.ConstantSpeedPropagation\""
par WirelessC.radioMedium.propagation propagationSpeed 2.99792e+08mps
attr unit mps
par WirelessC.radioMedium.propagation ignoreMovementDuringTransmission true
par WirelessC.radioMedium.propagation ignoreMovementDuringPropagation true
par WirelessC.radioMedium.propagation ignoreMovementDuringReception true
scalar WirelessC.radioMedium.propagation "Arrival computation count" 364
par WirelessC.radioMedium.analogModel typename "\"inet.physicallayer.wireless.common.analogmodel.packetlevel.ScalarAnalogModel\""
par WirelessC.radioMedium.analogModel ignorePartialInterference false
par WirelessC.radioMedium.backgroundNoise typename "\"inet.physicallayer.wireless.common.backgroundnoise.IsotropicScalarBackgroundNoise\""
par WirelessC.radioMedium.backgroundNoise power -90dBm
attr unit dBm
par WirelessC.radioMedium.backgroundNoise bandwidth "nan Hz"
attr unit Hz
par WirelessC.radioMedium.pathLoss typename "\"inet.physicallayer.wireless.common.pathloss.TwoRayGroundReflection\""
par WirelessC.radioMedium.pathLoss alpha 2
par WirelessC.radioMedium.pathLoss systemLoss 0dB
attr unit dB
par WirelessC.radioMedium.pathLoss physicalEnvironmentModule "\"physicalEnvironment\""
par WirelessC.radioMedium.obstacleLoss typename "\"inet.physicallayer.wireless.common.obstacleloss.IdealObstacleLoss\""
par WirelessC.radioMedium.obstacleLoss physicalEnvironmentModule "\"physicalEnvironment\""
par WirelessC.radioMedium.mediumLimitCache typename "\"inet.physicallayer.wireless.common.medium.MediumLimitCache\""
par WirelessC.radioMedium.mediumLimitCache centerFrequency 2e+09Hz
attr unit Hz
par WirelessC.radioMedium.mediumLimitCache maxSpeed "nan mps"
attr unit mps
par WirelessC.radioMedium.mediumLimitCache maxTransmissionPower "nan W"
attr unit W
par WirelessC.radioMedium.mediumLimitCache minInterferencePower "nan dBm"
attr unit dBm
par WirelessC.radioMedium.mediumLimitCache minReceptionPower "nan dBm"
attr unit dBm
par WirelessC.radioMedium.mediumLimitCache maxAntennaGain 0dB
attr unit dB
par WirelessC.radioMedium.mediumLimitCache minInterferenceTime 1e-12s
attr unit s
par WirelessC.radioMedium.mediumLimitCache maxTransmissionDuration 0.01s
attr unit s
par WirelessC.radioMedium.mediumLimitCache maxCommunicationRange "nan m"
attr unit m
par WirelessC.radioMedium.mediumLimitCache maxInterferenceRange "nan m"
attr unit m
par WirelessC.radioMedium.communicationCache typename "\"inet.physicallayer.wireless.common.communicationcache.VectorCommunicationCache\""
par WirelessC.radioMedium typename "\"inet.physicallayer.wireless.apsk.packetlevel.ApskScalarRadioMedium\""
par WirelessC.radioMedium physicalEnvironmentModule "\"physicalEnvironment\""
par WirelessC.radioMedium signalAnalogRepresentation "\"scalar\""
attr enum unitDisk,scalar,dimensional
par WirelessC.radioMedium rangeFilter "\"\""
par WirelessC.radioMedium radioModeFilter false
par WirelessC.radioMedium listeningFilter false
par WirelessC.radioMedium macAddressFilter false
par WirelessC.radioMedium recordTransmissionLog false
par WirelessC.radioMedium recordReceptionLog false
scalar WirelessC.radioMedium "transmission count" 91
scalar WirelessC.radioMedium "signal send count" 364
scalar WirelessC.radioMedium "reception computation count" 364
scalar WirelessC.radioMedium "interference computation count" 1168
scalar WirelessC.radioMedium "reception decision computation count" 240
scalar WirelessC.radioMedium "listening decision computation count" 568
scalar WirelessC.radioMedium "reception cache hit" 83.394160583942
attr unit %
scalar WirelessC.radioMedium "interference cache hit" 66.666666666667
attr unit %
scalar WirelessC.radioMedium "noise cache hit" 0
attr unit %
scalar WirelessC.radioMedium "snir cache hit" 50
attr unit %
scalar WirelessC.radioMedium "reception decision cache hit" 50
attr unit %
scalar WirelessC.radioMedium "reception result cache hit" 0
attr unit %
par WirelessC.hostA.radioIn[0].channel typename "\"ned.IdealChannel\""
par WirelessC.hostA.energyStorage typename "\"inet.power.storage.IdealEpEnergyStorage\""
scalar WirelessC.hostA.energyStorage residualEnergyCapacity:last -0.031071910298706
attr interpolationmode linear
attr recordingmode last
attr source residualEnergyCapacityChanged
attr title "Residual energy capacity, last"
attr unit J
par WirelessC.hostA.mobility typename "\"inet.mobility.static.StationaryMobility\""
par WirelessC.hostA.mobility subjectModule "\"^\""
par WirelessC.hostA.mobility coordinateSystemModule "\"\""
par WirelessC.hostA.mobility displayStringTextFormat "\"p: %p\\nv: %v\""
attr mutable ""
par WirelessC.hostA.mobility updateDisplayString true
par WirelessC.hostA.mobility constraintAreaMinX "-inf m"
attr unit m
par WirelessC.hostA.mobility constraintAreaMinY "-inf m"
attr unit m
par WirelessC.hostA.mobility constraintAreaMinZ "-inf m"
attr unit m
par WirelessC.hostA.mobility constraintAreaMaxX "inf m"
attr unit m
par WirelessC.hostA.mobility constraintAreaMaxY "inf m"
attr unit m
par WirelessC.hostA.mobility constraintAreaMaxZ "inf m"
attr unit m
par WirelessC.hostA.mobility initialX "nan m"
attr unit m
par WirelessC.hostA.mobility initialY "nan m"
attr unit m
par WirelessC.hostA.mobility initialZ 1.7m
attr unit m
par WirelessC.hostA.mobility initialLatitude "nan deg"
attr unit deg
par WirelessC.hostA.mobility initialLongitude "nan deg"
attr unit deg
par WirelessC.hostA.mobility initialAltitude 0m
attr unit m
par WirelessC.hostA.mobility initialHeading 0deg
attr unit deg
par WirelessC.hostA.mobility initialElevation 0deg
attr unit deg
par WirelessC.hostA.mobility initialBank 0deg
attr unit deg
par WirelessC.hostA.mobility initFromDisplayString true
par WirelessC.hostA.mobility updateFromDisplayString true
par WirelessC.hostA.interfaceTable typename "\"inet.networklayer.common.InterfaceTable\""
par WirelessC.hostA.interfaceTable displayAddresses false
par WirelessC.hostA.cb typename "\"inet.common.MessageDispatcher\""
par WirelessC.hostA.cb displayStringTextFormat "\"processed %p pk (%l)\""
par WirelessC.hostA.cb forwardServiceRegistration true
par WirelessC.hostA.cb forwardProtocolRegistration true
par WirelessC.hostA.bl typename "\"inet.common.MessageDispatcher\""
par WirelessC.hostA.bl displayStringTextFormat "\"processed %p pk (%l)\""
par WirelessC.hostA.bl forwardServiceRegistration true
par WirelessC.hostA.bl forwardProtocolRegistration true
par WirelessC.hostA.li typename "\"inet.common.MessageDispatcher\""
par WirelessC.hostA.li displayStringTextFormat "\"processed %p pk (%l)\""
par WirelessC.hostA.li forwardServiceRegistration true
par WirelessC.hostA.li forwardProtocolRegistration true
par WirelessC.hostA.lo[0].upperLayerIn.channel typename "\"ned.IdealChannel\""
par WirelessC.hostA.lo[0].lo.upperLayerOut.channel typename "\"ned.IdealChannel\""
par WirelessC.hostA.lo[0].lo typename "\"inet.linklayer.loopback.Loopback\""
par WirelessC.hostA.lo[0].lo interfaceTableModule "\"WirelessC.hostA.interfaceTable\""
par WirelessC.hostA.lo[0].lo mtu 4470B
attr unit B
scalar WirelessC.hostA.lo[0].lo rcvdPkFromHl:count 0
attr interpolationmode none
attr recordingmode count
attr source packetReceivedFromUpper
attr title "packets received from higher layer, count"
scalar WirelessC.hostA.lo[0].lo rcvdPkFromHl:sum(packetBytes) 0
attr interpolationmode none
attr recordingmode sum(packetBytes)
attr source packetReceivedFromUpper
attr title "packets received from higher layer, sum(packetBytes)"
scalar WirelessC.hostA.lo[0].lo passedUpPk:count 0
attr interpolationmode none
attr recordingmode count
attr source packetSentToUpper
attr title "packets passed to higher layer, count"
scalar WirelessC.hostA.lo[0].lo passedUpPk:sum(packetBytes) 0
attr interpolationmode none
attr recordingmode sum(packetBytes)
attr source packetSentToUpper
attr title "packets passed to higher layer, sum(packetBytes)"
par WirelessC.hostA.lo[0] typename "\"inet.linklayer.loopback.LoopbackInterface\""
par WirelessC.hostA.lo[0] displayStringTextFormat "\"%a (%i)\\n%m\""
par WirelessC.hostA.lo[0] recordPcap false
par WirelessC.hostA.lo[0] numPcapRecorders 0
par WirelessC.hostA.lo[0] interfaceTableModule "\"WirelessC.hostA.interfaceTable\""
scalar WirelessC.hostA.lo[0] packetDropInterfaceDown:count 0
attr interpolationmode none
attr recordingmode count
attr source packetDropReasonIsInterfaceDown(packetDropped)
attr title "packet drops: interface down, count"
scalar WirelessC.hostA.lo[0] packetDropInterfaceDown:sum(packetBytes) 0
attr interpolationmode none
attr recordingmode sum(packetBytes)
attr source packetDropReasonIsInterfaceDown(packetDropped)
attr title "packet drops: interface down, sum(packetBytes)"
scalar WirelessC.hostA.lo[0] packetDropNoCarrier:count 0
attr interpolationmode none
attr recordingmode count
attr source packetDropReasonIsNoCarrier(packetDropped)
attr title "packet drops: no carrier, count"
scalar WirelessC.hostA.lo[0] packetDropNoCarrier:sum(packetBytes) 0
attr interpolationmode none
attr recordingmode sum(packetBytes)
attr source packetDropReasonIsNoCarrier(packetDropped)
attr title "packet drops: no carrier, sum(packetBytes)"
par WirelessC.hostA.wlan[0].radioIn.channel typename "\"ned.IdealChannel\""
par WirelessC.hostA.wlan[0].mac.upperLayerOut.channel typename "\"ned.IdealChannel\""
par WirelessC.hostA.wlan[0].upperLayerIn.channel typename "\"ned.IdealChannel\""
par WirelessC.hostA.wlan[0].queue typename "\"inet.queueing.queue.DropTailQueue\""
par WirelessC.hostA.wlan[0].queue displayStringTextFormat "\"contains %p pk (%l) pushed %u\\npulled %o removed %r dropped %d\""
par WirelessC.hostA.wlan[0].queue packetCapacity 10
par WirelessC.hostA.wlan[0].queue dataCapacity -1b
attr unit b
par WirelessC.hostA.wlan[0].queue dropperClass "\"inet::queueing::PacketAtCollectionEndDropper\""
par WirelessC.hostA.wlan[0].queue comparatorClass "\"\""
par WirelessC.hostA.wlan[0].queue bufferModule "\"\""
scalar WirelessC.hostA.wlan[0].queue queueLength:last 3
attr autoWarmupFilter false
attr interpolationmode sample-hold
attr recordingmode last
attr source "warmup(atomic(constant0(packetPushEnded) + count(packetPushStarted) - count(packetPulled) - count(packetRemoved) - count(packetDropped)))"
attr title "queue length, last"
attr unit pk
scalar WirelessC.hostA.wlan[0].queue queueLength:max 10
attr autoWarmupFilter false
attr interpolationmode sample-hold
attr recordingmode max
attr source "warmup(atomic(constant0(packetPushEnded) + count(packetPushStarted) - count(packetPulled) - count(packetRemoved) - count(packetDropped)))"
attr title "queue length, max"
attr unit pk
scalar WirelessC.hostA.wlan[0].queue queueLength:timeavg 4.8392130280132
attr autoWarmupFilter false
attr interpolationmode sample-hold
attr recordingmode timeavg
attr source "warmup(atomic(constant0(packetPushEnded) + count(packetPushStarted) - count(packetPulled) - count(packetRemoved) - count(packetDropped)))"
attr title "queue length, timeavg"
attr unit pk
scalar WirelessC.hostA.wlan[0].queue queueBitLength:last 24672
attr autoWarmupFilter false
attr interpolationmode sample-hold
attr recordingmode last
attr source "warmup(atomic(constant0(packetPushEnded) + sum(packetLength(packetPushStarted)) - sum(packetLength(packetPulled)) - sum(packetLength(packetRemoved)) - sum(packetLength(packetDropped))))"
attr title "queue bit length, last"
attr unit b
scalar WirelessC.hostA.wlan[0].queue queueBitLength:max 82240
attr autoWarmupFilter false
attr interpolationmode sample-hold
attr recordingmode max
attr source "warmup(atomic(constant0(packetPushEnded) + sum(packetLength(packetPushStarted)) - sum(packetLength(packetPulled)) - sum(packetLength(packetRemoved)) - sum(packetLength(packetDropped))))"
attr title "queue bit length, max"
attr unit b
scalar WirelessC.hostA.wlan[0].queue queueBitLength:timeavg 39797.68794238
attr autoWarmupFilter false
attr interpolationmode sample-hold
attr recordingmode timeavg
attr source "warmup(atomic(constant0(packetPushEnded) + sum(packetLength(packetPushStarted)) - sum(packetLength(packetPulled)) - sum(packetLength(packetRemoved)) - sum(packetLength(packetDropped))))"
attr title "queue bit length, timeavg"
attr unit b
statistic WirelessC.hostA.wlan[0].queue queueingTime:histogram
field count 32
field mean 0.066941529308625
field stddev 0.045544258822653
field min 0
field max 0.132159132649
field sum 2.142128937876
field sqrsum 0.20770005194053
attr interpolationmode none
attr recordingmode histogram
attr source queueingTime(packetPulled)
attr title "queueing times"
attr unit s
bin	-inf	0
bin	0	2
bin	0.002	0
bin	0.004	0
bin	0.006	0
bin	0.008	1
bin	0.01	1
bin	0.012	1
bin	0.014	1
bin	0.016	0
bin	0.018	0
bin	0.02	1
bin	0.022	0
bin	0.024	1
bin	0.026	0
bin	0.028	1
bin	0.03	0
bin	0.032	0
bin	0.034	0
bin	0.036	1
bin	0.038	0
bin	0.04	0
bin	0.042	0
bin	0.044	0
bin	0.046	3
bin	0.048	0
bin	0.05	1
bin	0.052	1
bin	0.054	1
bin	0.056	1
bin	0.058	1
bin	0.06	0
bin	0.062	1
bin	0.064	0
bin	0.066	0
bin	0.068	0
bin	0.07	0
bin	0.072	0
bin	0.074	0
bin	0.076	0
bin	0.078	0
bin	0.08	1
bin	0.082	1
bin	0.084	1
bin	0.086	0
bin	0.088	0
bin	0.09	0
bin	0.092	0
bin	0.094	0
bin	0.096	0
bin	0.098	0
bin	0.1	0
bin	0.102	0
bin	0.104	0
bin	0.106	0
bin	0.108	0
bin	0.11	0
bin	0.112	0
bin	0.114	0
bin	0.116	0
bin	0.118	1
bin	0.12	1
bin	0.122	2
bin	0.124	2
bin	0.126	1
bin	0.128	1
bin	0.13	1
bin	0.132	1
bin	0.134	0
bin	0.136	0
bin	0.138	0
bin	0.14	0
bin	0.142	0
bin	0.144	0
bin	0.146	0
bin	0.148	0
bin	0.15	0
bin	0.152	0
bin	0.154	0
bin	0.156	0
bin	0.158	0
bin	0.16	0
bin	0.162	0
bin	0.164	0
bin	0.166	0
scalar WirelessC.hostA.wlan[0].queue outgoingPackets:count 32
attr recordingmode count
attr source packetPulled
attr title "outgoing packets, count"
attr unit pk
scalar WirelessC.hostA.wlan[0].queue outgoingPacketLengths:sum 255360
attr interpolationmode none
attr recordingmode sum
attr source packetLength(packetPulled)
attr title "outgoing packet lengths, sum"
attr unit b
statistic WirelessC.hostA.wlan[0].queue outgoingPacketLengths:histogram
field count 32
field mean 7980
field stddev 1380.2724368761
field min 416
field max 8224
field sum 255360
field sqrsum 2096832512
attr interpolationmode none
attr recordingmode histogram
attr source packetLength(packetPulled)
attr title "outgoing packet lengths"
attr unit b
bin	-inf	0
bin	0	0
bin	200	0
bin	400	1
bin	600	0
bin	800	0
bin	1000	0
bin	1200	0
bin	1400	0
bin	1600	0
bin	1800	0
bin	2000	0
bin	2200	0
bin	2400	0
bin	2600	0
bin	2800	0
bin	3000	0
bin	3200	0
bin	3400	0
bin	3600	0
bin	3800	0
bin	4000	0
bin	4200	0
bin	4400	0
bin	4600	0
bin	4800	0
bin	5000	0
bin	5200	0
bin	5400	0
bin	5600	0
bin	5800	0
bin	6000	0
bin	6200	0
bin	6400	0
bin	6600	0
bin	6800	0
bin	7000	0
bin	7200	0
bin	7400	0
bin	7600	0
bin	7800	0
bin	8000	0
bin	8200	31
bin	8400	0
bin	8600	0
bin	8800	0
bin	9000	0
bin	9200	0
bin	9400	0
bin	9600	0
bin	9800	0
bin	10000	0
bin	10200	0
statistic WirelessC.hostA.wlan[0].queue flowQueueingTime:histogram
field count 0
field mean nan
field stddev nan
field min nan
field max nan
field sum 0
field sqrsum 0
attr interpolationmode none
attr recordingmode histogram
attr source queueingTime(demuxFlow(packetPulled))
attr title "flow queueing times"
attr unit s
bin	-inf	0
bin	0	0
bin	1	0
scalar WirelessC.hostA.wlan[0].queue incomingPackets:count 43
attr recordingmode count
attr source packetPushStarted
attr title "incoming packets, count"
attr unit pk
scalar WirelessC.hostA.wlan[0].queue incomingPacketLengths:sum 345824
attr interpolationmode none
attr recordingmode sum
attr source packetLength(packetPushStarted)
attr title "incoming packet lengths, sum"
attr unit b
statistic WirelessC.hostA.wlan[0].queue incomingPacketLengths:histogram
field count 43
field mean 8042.4186046512
field stddev 1190.708837157
field min 416
field max 8224
field sum 345824
field sqrsum 2840808448
attr interpolationmode none
attr recordingmode histogram
attr source packetLength(packetPushStarted)
attr title "incoming packet lengths"
attr unit b
bin	-inf	0
bin	0	0
bin	200	0
bin	400	1
bin	600	0
bin	800	0
bin	1000	0
bin	1200	0
bin	1400	0
bin	1600	0
bin	1800	0
bin	2000	0
bin	2200	0
bin	2400	0
bin	2600	0
bin	2800	0
bin	3000	0
bin	3200	0
bin	3400	0
bin	3600	0
bin	3800	0
bin	4000	0
bin	4200	0
bin	4400	0
bin	4600	0
bin	4800	0
bin	5000	0
bin	5200	0
bin	5400	0
bin	5600	0
bin	5800	0
bin	6000	0
bin	6200	0
bin	6400	0
bin	6600	0
bin	6800	0
bin	7000	0
bin	7200	0
bin	7400	0
bin	7600	0
bin	7800	0
bin	8000	0
bin	8200	42
bin	8400	0
bin	8600	0
bin	8800	0
bin	9000	0
bin	9200	0
bin	9400	0
bin	9600	0
bin	9800	0
bin	10000	0
bin	10200	0
scalar WirelessC.hostA.wlan[0].queue droppedPacketsQueueOverflow:count 8
attr interpolationmode none
attr recordingmode count
attr source packetDropReasonIsQueueOverflow(packetDropped)
attr title "dropped packets: queue overflow, count"
attr unit pk
scalar WirelessC.hostA.wlan[0].queue droppedPacketLengthsQueueOverflow:sum 65792
attr interpolationmode none
attr recordingmode sum
attr source packetLength(packetDropReasonIsQueueOverflow(packetDropped))
attr title "dropped packet lengths: queue overflow, sum"
attr unit b
par WirelessC.hostA.wlan[0].mac typename "\"inet.linklayer.csmaca.CsmaCaMac\""
par WirelessC.hostA.wlan[0].mac interfaceTableModule "\"WirelessC.hostA.interfaceTable\""
par WirelessC.hostA.wlan[0].mac radioModule "\"^.radio\""
par WirelessC.hostA.wlan[0].mac address "\"auto\""
attr mutable ""
par WirelessC.hostA.wlan[0].mac fcsMode "\"declared\""
attr enum declared,computed
par WirelessC.hostA.wlan[0].mac useAck true
par WirelessC.hostA.wlan[0].mac bitrate 1e+06bps
attr unit bps
par WirelessC.hostA.wlan[0].mac headerLength 23B
attr unit B
par WirelessC.hostA.wlan[0].mac ackLength 14B
attr unit B
par WirelessC.hostA.wlan[0].mac sifsTime 1e-05s
attr unit s
par WirelessC.hostA.wlan[0].mac slotTime 2e-05s
attr unit s
par WirelessC.hostA.wlan[0].mac difsTime 5e-05s
attr unit s
par WirelessC.hostA.wlan[0].mac ackTimeout 0.0003s
attr unit s
par WirelessC.hostA.wlan[0].mac mtu 1500
par WirelessC.hostA.wlan[0].mac cwMin 31
par WirelessC.hostA.wlan[0].mac cwMax 1023
par WirelessC.hostA.wlan[0].mac cwMulticast 31
par WirelessC.hostA.wlan[0].mac retryLimit 7
scalar WirelessC.hostA.wlan[0].mac numRetry 4
scalar WirelessC.hostA.wlan[0].mac numSentWithoutRetry 27
scalar WirelessC.hostA.wlan[0].mac numGivenUp 0
scalar WirelessC.hostA.wlan[0].mac numCollision 0
scalar WirelessC.hostA.wlan[0].mac numSent 30
scalar WirelessC.hostA.wlan[0].mac numReceived 1
scalar WirelessC.hostA.wlan[0].mac numSentBroadcast 1
scalar WirelessC.hostA.wlan[0].mac numReceivedBroadcast 1
scalar WirelessC.hostA.wlan[0].mac packetDropIncorrectlyReceived:count 0
attr interpolationmode none
attr recordingmode count
attr source packetDropReasonIsIncorrectlyReceived(packetDropped)
attr title "packet drop: incorrectly received, count"
scalar WirelessC.hostA.wlan[0].mac packetDropIncorrectlyReceived:sum(packetBytes) 0
attr interpolationmode none
attr recordingmode sum(packetBytes)
attr source packetDropReasonIsIncorrectlyReceived(packetDropped)
attr title "packet drop: incorrectly received, sum(packetBytes)"
scalar WirelessC.hostA.wlan[0].mac packetDropNotAddressedToUs:count 12
attr interpolationmode none
attr recordingmode count
attr source packetDropReasonIsNotAddressedToUs(packetDropped)
attr title "packet drop: not addressed to us, count"
scalar WirelessC.hostA.wlan[0].mac packetDropNotAddressedToUs:sum(packetBytes) 12660
attr interpolationmode none
attr recordingmode sum(packetBytes)
attr source packetDropReasonIsNotAddressedToUs(packetDropped)
attr title "packet drop: not addressed to us, sum(packetBytes)"
scalar WirelessC.hostA.wlan[0].mac packetDropQueueOverflow:count 0
attr interpolationmode none
attr recordingmode count
attr source packetDropReasonIsQueueOverflow(packetDropped)
attr title "packet drop: queue overflow, count"
scalar WirelessC.hostA.wlan[0].mac packetDropQueueOverflow:sum(packetBytes) 0
attr interpolationmode none
attr recordingmode sum(packetBytes)
attr source packetDropReasonIsQueueOverflow(packetDropped)
attr title "packet drop: queue overflow, sum(packetBytes)"
scalar WirelessC.hostA.wlan[0].mac packetDropRetryLimitReached:count 0
attr interpolationmode none
attr recordingmode count
attr source packetDropReasonIsRetryLimitReached(packetDropped)
attr title "packet drop: retry limit reached, count"
scalar WirelessC.hostA.wlan[0].mac packetDropRetryLimitReached:sum(packetBytes) 0
attr interpolationmode none
attr recordingmode sum(packetBytes)
attr source packetDropReasonIsRetryLimitReached(packetDropped)
attr title "packet drop: retry limit reached, sum(packetBytes)"
scalar WirelessC.hostA.wlan[0].mac linkBroken:count 0
attr interpolationmode none
attr recordingmode count
attr source linkBroken
attr title "link break, count"
par WirelessC.hostA.wlan[0].radio.antenna typename "\"inet.physicallayer.wireless.common.antenna.ConstantGainAntenna\""
par WirelessC.hostA.wlan[0].radio.antenna mobilityModule "\"^.^.^.mobility\""
par WirelessC.hostA.wlan[0].radio.antenna numAntennas 1
par WirelessC.hostA.wlan[0].radio.antenna gain 3dB
attr unit dB
par WirelessC.hostA.wlan[0].radio.transmitter typename "\"inet.physicallayer.wireless.apsk.packetlevel.ApskScalarTransmitter\""
par WirelessC.hostA.wlan[0].radio.transmitter preambleDuration 1e-05s
attr unit s
par WirelessC.hostA.wlan[0].radio.transmitter headerLength 64b
attr unit b
par WirelessC.hostA.wlan[0].radio.transmitter bitrate 1e+06bps
attr unit bps
par WirelessC.hostA.wlan[0].radio.transmitter power 0.0014W
attr unit W
par WirelessC.hostA.wlan[0].radio.transmitter centerFrequency 2e+09Hz
attr unit Hz
par WirelessC.hostA.wlan[0].radio.transmitter bandwidth 2e+06Hz
attr unit Hz
par WirelessC.hostA.wlan[0].radio.transmitter codeRate 1
par WirelessC.hostA.wlan[0].radio.transmitter modulation "\"BPSK\""
par WirelessC.hostA.wlan[0].radio.receiver.errorModel typename "\"inet.physicallayer.wireless.apsk.packetlevel.errormodel.ApskErrorModel\""
par WirelessC.hostA.wlan[0].radio.receiver.errorModel corruptionMode "\"packet\""
attr enum packet,chunk,byte,bit
par WirelessC.hostA.wlan[0].radio.receiver.errorModel snirMode "\"min\""
attr enum min,mean
par WirelessC.hostA.wlan[0].radio.receiver.errorModel snirOffset 0dB
attr unit dB
par WirelessC.hostA.wlan[0].radio.receiver typename "\"inet.physicallayer.wireless.apsk.packetlevel.ApskScalarReceiver\""
par WirelessC.hostA.wlan[0].radio.receiver snirThreshold 4dB
attr unit dB
par WirelessC.hostA.wlan[0].radio.receiver snirThresholdMode "\"min\""
attr enum min,mean
par WirelessC.hostA.wlan[0].radio.receiver energyDetection -85dBm
attr unit dBm
par WirelessC.hostA.wlan[0].radio.receiver sensitivity -85dBm
attr unit dBm
par WirelessC.hostA.wlan[0].radio.receiver centerFrequency 2e+09Hz
attr unit Hz
par WirelessC.hostA.wlan[0].radio.receiver bandwidth 2e+06Hz
attr unit Hz
par WirelessC.hostA.wlan[0].radio.receiver modulation "\"BPSK\""
par WirelessC.hostA.wlan[0].radio.energyConsumer typename "\"inet.physicallayer.wireless.common.energyconsumer.StateBasedEpEnergyConsumer\""
par WirelessC.hostA.wlan[0].radio.energyConsumer energySourceModule "\"WirelessC.hostA.energyStorage\""
par WirelessC.hostA.wlan[0].radio.energyConsumer offPowerConsumption 0W
attr unit W
par WirelessC.hostA.wlan[0].radio.energyConsumer sleepPowerConsumption 0.001W
attr unit W
par WirelessC.hostA.wlan[0].radio.energyConsumer switchingPowerConsumption 0.001W
attr unit W
par WirelessC.hostA.wlan[0].radio.energyConsumer receiverIdlePowerConsumption 0.002W
attr unit W
par WirelessC.hostA.wlan[0].radio.energyConsumer receiverBusyPowerConsumption 0.005W
attr unit W
par WirelessC.hostA.wlan[0].radio.energyConsumer receiverReceivingPowerConsumption 0.01W
attr unit W
par WirelessC.hostA.wlan[0].radio.energyConsumer receiverReceivingPreamblePowerConsumption 0.01W
attr unit W
par WirelessC.hostA.wlan[0].radio.energyConsumer receiverReceivingHeaderPowerConsumption 0.01W
attr unit W
par WirelessC.hostA.wlan[0].radio.energyConsumer receiverReceivingDataPowerConsumption 0.01W
attr unit W
par WirelessC.hostA.wlan[0].radio.energyConsumer transmitterIdlePowerConsumption 0.002W
attr unit W
par WirelessC.hostA.wlan[0].radio.energyConsumer transmitterTransmittingPowerConsumption 0.1W
attr unit W
par WirelessC.hostA.wlan[0].radio.energyConsumer transmitterTransmittingPreamblePowerConsumption 0.1W
attr unit W
par WirelessC.hostA.wlan[0].radio.energyConsumer transmitterTransmittingHeaderPowerConsumption 0.1W
attr unit W
par WirelessC.hostA.wlan[0].radio.energyConsumer transmitterTransmittingDataPowerConsumption 0.1W
attr unit W
par WirelessC.hostA.wlan[0].radio typename "\"inet.physicallayer.wireless.apsk.packetlevel.ApskScalarRadio\""
par WirelessC.hostA.wlan[0].radio radioMediumModule "\"radioMedium\""
par WirelessC.hostA.wlan[0].radio energySourceModule "\"WirelessC.hostA.energyStorage\""
par WirelessC.hostA.wlan[0].radio initialRadioMode "\"off\""
attr enum off,sleep,receiver,transmitter,transceiver
par WirelessC.hostA.wlan[0].radio switchingTimes "\"ms 0 0 0 0 0 0 0 0 0 0 0 0 0 0 0 0 0 0 0 0 0 0 0 0 0\""
par WirelessC.hostA.wlan[0].radio sendRawBytes false
par WirelessC.hostA.wlan[0].radio separateTransmissionParts false
par WirelessC.hostA.wlan[0].radio separateReceptionParts false
par WirelessC.hostA.wlan[0].radio displayCommunicationRange true
par WirelessC.hostA.wlan[0].radio displayInterferenceRange false
par WirelessC.hostA.wlan[0].radio centerFrequency 2e+09Hz
attr unit Hz
par WirelessC.hostA.wlan[0].radio bandwidth 2e+06Hz
attr unit Hz
par WirelessC.hostA.wlan[0].radio protocol "\"\""
par WirelessC.hostA.wlan[0].radio signalAnalogRepresentation "\"scalar\""
attr enum scalar,dimensional
scalar WirelessC.hostA.wlan[0].radio radioMode:count 77
attr interpolationmode sample-hold
attr recordingmode count
attr source radioModeChanged
attr title "Radio mode, count"
scalar WirelessC.hostA.wlan[0].radio receptionState:count 165
attr interpolationmode sample-hold
attr recordingmode count
attr source receptionStateChanged
attr title "Radio reception state, count"
scalar WirelessC.hostA.wlan[0].radio transmissionState:count 148
attr interpolationmode sample-hold
attr recordingmode count
attr source transmissionStateChanged
attr title "Radio transmission state, count"
statistic WirelessC.hostA.wlan[0].radio minSnir:histogram
field count 45
field mean 31.780841677046
field stddev 0.49306089484144
field min 31.013721278225
field max 32.585514056053
field sum 1430.1378754671
field sqrsum 45461.68219459
attr recordingmode histogram
attr source minimumSnir(packetSentToUpper)
attr title "Min SNIR"
bin	-inf	0
bin	30.6	0
bin	30.65	0
bin	30.7	0
bin	30.75	0
bin	30.8	0
bin	30.85	0
bin	30.9	0
bin	30.95	0
bin	31	3
bin	31.05	1
bin	31.1	2
bin	31.15	2
bin	31.2	2
bin	31.25	0
bin	31.3	2
bin	31.35	1
bin	31.4	2
bin	31.45	1
bin	31.5	0
bin	31.55	2
bin	31.6	1
bin	31.65	1
bin	31.7	2
bin	31.75	1
bin	31.8	0
bin	31.85	3
bin	31.9	0
bin	31.95	2
bin	32	1
bin	32.05	2
bin	32.1	1
bin	32.15	1
bin	32.2	2
bin	32.25	1
bin	32.3	2
bin	32.35	1
bin	32.4	2
bin	32.45	1
bin	32.5	1
bin	32.55	2
bin	32.6	0
bin	32.65	0
bin	32.7	0
bin	32.75	0
bin	32.8	0
bin	32.85	0
bin	32.9	0
bin	32.95	0
bin	33	0
[...]
bin	0.16	0
bin	0.18	0
bin	0.2	0
bin	0.22	0
bin	0.24	0
bin	0.26	0
bin	0.28	0
bin	0.3	0
bin	0.32	0
bin	0.34	0
bin	0.36	0
bin	0.38	0
bin	0.4	0
bin	0.42	0
bin	0.44	0
bin	0.46	0
bin	0.48	0
bin	0.5	0
statistic WirelessC.hostR3.wlan[0].radio bitErrorRate:histogram
field count 54
field mean 2.2199260668702e-19
field stddev 1.0021032109701e-19
field min 9.1197541062072e-30
field max 2.6639112802048e-19
field sum 1.1987600761099e-17
field sqrsum 3.193390488961e-36
attr recordingmode histogram
attr source bitErrorRate(packetSentToUpper)
attr title "Bit error rate"
bin	-inf	0
bin	0	9
bin	5e-21	0
bin	1e-20	0
bin	1.5e-20	0
bin	2e-20	0
bin	2.5e-20	0
bin	3e-20	0
bin	3.5e-20	0
bin	4e-20	0
bin	4.5e-20	0
bin	5e-20	0
bin	5.5e-20	0
bin	6e-20	0
bin	6.5e-20	0
bin	7e-20	0
bin	7.5e-20	0
bin	8e-20	0
bin	8.5e-20	0
bin	9e-20	0
bin	9.5e-20	0
bin	1e-19	0
bin	1.05e-19	0
bin	1.1e-19	0
bin	1.15e-19	0
bin	1.2e-19	0
bin	1.25e-19	0
bin	1.3e-19	0
bin	1.35e-19	0
bin	1.4e-19	0
bin	1.45e-19	0
bin	1.5e-19	0
bin	1.55e-19	0
bin	1.6e-19	0
bin	1.65e-19	0
bin	1.7e-19	0
bin	1.75e-19	0
bin	1.8e-19	0
bin	1.85e-19	0
bin	1.9e-19	0
bin	1.95e-19	0
bin	2e-19	0
bin	2.05e-19	0
bin	2.1e-19	0
bin	2.15e-19	0
bin	2.2e-19	0
bin	2.25e-19	0
bin	2.3e-19	0
bin	2.35e-19	0
bin	2.4e-19	0
bin	2.45e-19	0
bin	2.5e-19	0
bin	2.55e-19	0
bin	2.6e-19	0
bin	2.65e-19	45
bin	2.7e-19	0
bin	2.75e-19	0
bin	2.8e-19	0
bin	2.85e-19	0
bin	2.9e-19	0
bin	2.95e-19	0
bin	3e-19	0
bin	3.05e-19	0
bin	3.1e-19	0
bin	3.15e-19	0
bin	3.2e-19	0
bin	3.25e-19	0
bin	3.3e-19	0
bin	3.35e-19	0
statistic WirelessC.hostR3.wlan[0].radio symbolErrorRate:histogram
field count 54
field mean 2.2199260668702e-19
field stddev 1.0021032109701e-19
field min 9.1197541062072e-30
field max 2.6639112802048e-19
field sum 1.1987600761099e-17
field sqrsum 3.193390488961e-36
attr recordingmode histogram
attr source symbolErrorRate(packetSentToUpper)
attr title "Symbol error rate"
bin	-inf	0
bin	0	9
bin	5e-21	0
bin	1e-20	0
bin	1.5e-20	0
bin	2e-20	0
bin	2.5e-20	0
bin	3e-20	0
bin	3.5e-20	0
bin	4e-20	0
bin	4.5e-20	0
bin	5e-20	0
bin	5.5e-20	0
bin	6e-20	0
bin	6.5e-20	0
bin	7e-20	0
bin	7.5e-20	0
bin	8e-20	0
bin	8.5e-20	0
bin	9e-20	0
bin	9.5e-20	0
bin	1e-19	0
bin	1.05e-19	0
bin	1.1e-19	0
bin	1.15e-19	0
bin	1.2e-19	0
bin	1.25e-19	0
bin	1.3e-19	0
bin	1.35e-19	0
bin	1.4e-19	0
bin	1.45e-19	0
bin	1.5e-19	0
bin	1.55e-19	0
bin	1.6e-19	0
bin	1.65e-19	0
bin	1.7e-19	0
bin	1.75e-19	0
bin	1.8e-19	0
bin	1.85e-19	0
bin	1.9e-19	0
bin	1.95e-19	0
bin	2e-19	0
bin	2.05e-19	0
bin	2.1e-19	0
bin	2.15e-19	0
bin	2.2e-19	0
bin	2.25e-19	0
bin	2.3e-19	0
bin	2.35e-19	0
bin	2.4e-19	0
bin	2.45e-19	0
bin	2.5e-19	0
bin	2.55e-19	0
bin	2.6e-19	0
bin	2.65e-19	45
bin	2.7e-19	0
bin	2.75e-19	0
bin	2.8e-19	0
bin	2.85e-19	0
bin	2.9e-19	0
bin	2.95e-19	0
bin	3e-19	0
bin	3.05e-19	0
bin	3.1e-19	0
bin	3.15e-19	0
bin	3.2e-19	0
bin	3.25e-19	0
bin	3.3e-19	0
bin	3.35e-19	0
scalar WirelessC.hostR3.wlan[0].radio packetDropped:count 0
attr interpolationmode none
attr recordingmode count
attr title "packets dropped, count"
scalar WirelessC.hostR3.wlan[0].radio packetDropped:sum(packetBytes) 0
attr interpolationmode none
attr recordingmode sum(packetBytes)
attr title "packets dropped, sum(packetBytes)"
par WirelessC.hostR3.wlan[0] typename "\"inet.linklayer.common.WirelessInterface\""
par WirelessC.hostR3.wlan[0] displayStringTextFormat "\"%a (%i)\\n%m\""
par WirelessC.hostR3.wlan[0] recordPcap false
par WirelessC.hostR3.wlan[0] numPcapRecorders 0
par WirelessC.hostR3.wlan[0] interfaceTableModule "\"WirelessC.hostR3.interfaceTable\""
par WirelessC.hostR3.wlan[0] energySourceModule "\"WirelessC.hostR3.energyStorage\""
par WirelessC.hostR3.wlan[0] protocol "\"\""
scalar WirelessC.hostR3.wlan[0] packetDropInterfaceDown:count 0
attr interpolationmode none
attr recordingmode count
attr source packetDropReasonIsInterfaceDown(packetDropped)
attr title "packet drops: interface down, count"
scalar WirelessC.hostR3.wlan[0] packetDropInterfaceDown:sum(packetBytes) 0
attr interpolationmode none
attr recordingmode sum(packetBytes)
attr source packetDropReasonIsInterfaceDown(packetDropped)
attr title "packet drops: interface down, sum(packetBytes)"
scalar WirelessC.hostR3.wlan[0] packetDropNoCarrier:count 0
attr interpolationmode none
attr recordingmode count
attr source packetDropReasonIsNoCarrier(packetDropped)
attr title "packet drops: no carrier, count"
scalar WirelessC.hostR3.wlan[0] packetDropNoCarrier:sum(packetBytes) 0
attr interpolationmode none
attr recordingmode sum(packetBytes)
attr source packetDropReasonIsNoCarrier(packetDropped)
attr title "packet drops: no carrier, sum(packetBytes)"
par WirelessC.hostR3.ipv4.transportIn.channel typename "\"ned.IdealChannel\""
par WirelessC.hostR3.ipv4.up.out[0].channel typename "\"ned.IdealChannel\""
par WirelessC.hostR3.ipv4.lp.out[2].channel typename "\"ned.IdealChannel\""
par WirelessC.hostR3.ipv4.ifIn.channel typename "\"ned.IdealChannel\""
par WirelessC.hostR3.ipv4.configurator typename "\"inet.networklayer.configurator.ipv4.Ipv4NodeConfigurator\""
par WirelessC.hostR3.ipv4.configurator interfaceTableModule "\"WirelessC.hostR3.interfaceTable\""
par WirelessC.hostR3.ipv4.configurator routingTableModule "\"WirelessC.hostR3.ipv4.routingTable\""
par WirelessC.hostR3.ipv4.configurator networkConfiguratorModule "\"configurator\""
par WirelessC.hostR3.ipv4.configurator configureRoutingTable true
par WirelessC.hostR3.ipv4.routingTable typename "\"inet.networklayer.ipv4.Ipv4RoutingTable\""
par WirelessC.hostR3.ipv4.routingTable interfaceTableModule "\"WirelessC.hostR3.interfaceTable\""
par WirelessC.hostR3.ipv4.routingTable routerId "\"auto\""
par WirelessC.hostR3.ipv4.routingTable netmaskRoutes "\"\""
par WirelessC.hostR3.ipv4.routingTable forwarding true
par WirelessC.hostR3.ipv4.routingTable multicastForwarding false
par WirelessC.hostR3.ipv4.routingTable useAdminDist false
par WirelessC.hostR3.ipv4.routingTable routingFile "\"\""
par WirelessC.hostR3.ipv4.natTable typename "\"inet.networklayer.ipv4.Ipv4NatTable\""
par WirelessC.hostR3.ipv4.natTable networkProtocolModule "\"^.ip\""
par WirelessC.hostR3.ipv4.natTable config "<config/> at content:1"
par WirelessC.hostR3.ipv4.up typename "\"inet.common.MessageDispatcher\""
par WirelessC.hostR3.ipv4.up displayStringTextFormat "\"processed %p pk (%l)\""
par WirelessC.hostR3.ipv4.up forwardServiceRegistration true
par WirelessC.hostR3.ipv4.up forwardProtocolRegistration true
par WirelessC.hostR3.ipv4.igmp typename "\"inet.networklayer.ipv4.Igmpv2\""
par WirelessC.hostR3.ipv4.igmp interfaceTableModule "\"WirelessC.hostR3.interfaceTable\""
par WirelessC.hostR3.ipv4.igmp routingTableModule "\"WirelessC.hostR3.ipv4.routingTable\""
par WirelessC.hostR3.ipv4.igmp crcMode "\"declared\""
attr enum declared,computed
par WirelessC.hostR3.ipv4.igmp enabled true
par WirelessC.hostR3.ipv4.igmp robustnessVariable 2
par WirelessC.hostR3.ipv4.igmp queryInterval 125s
attr unit s
par WirelessC.hostR3.ipv4.igmp queryResponseInterval 10s
attr unit s
par WirelessC.hostR3.ipv4.igmp groupMembershipInterval 260s
attr unit s
par WirelessC.hostR3.ipv4.igmp otherQuerierPresentInterval 255s
attr unit s
par WirelessC.hostR3.ipv4.igmp startupQueryInterval 31.25s
attr unit s
par WirelessC.hostR3.ipv4.igmp startupQueryCount 2
par WirelessC.hostR3.ipv4.igmp lastMemberQueryInterval 1s
attr unit s
par WirelessC.hostR3.ipv4.igmp lastMemberQueryCount 2
par WirelessC.hostR3.ipv4.igmp unsolicitedReportInterval 10s
attr unit s
par WirelessC.hostR3.ipv4.icmp typename "\"inet.networklayer.ipv4.Icmp\""
par WirelessC.hostR3.ipv4.icmp interfaceTableModule "\"WirelessC.hostR3.interfaceTable\""
par WirelessC.hostR3.ipv4.icmp routingTableModule "\"WirelessC.hostR3.ipv4.routingTable\""
par WirelessC.hostR3.ipv4.icmp crcMode "\"declared\""
attr enum declared,computed
attr mutable ""
par WirelessC.hostR3.ipv4.icmp quoteLength 8B
attr mutable ""
attr unit B
par WirelessC.hostR3.ipv4.mp typename "\"inet.common.MessageDispatcher\""
par WirelessC.hostR3.ipv4.mp displayStringTextFormat "\"processed %p pk (%l)\""
par WirelessC.hostR3.ipv4.mp forwardServiceRegistration true
par WirelessC.hostR3.ipv4.mp forwardProtocolRegistration true
par WirelessC.hostR3.ipv4.ip typename "\"inet.networklayer.ipv4.Ipv4\""
par WirelessC.hostR3.ipv4.ip interfaceTableModule "\"WirelessC.hostR3.interfaceTable\""
par WirelessC.hostR3.ipv4.ip routingTableModule "\"WirelessC.hostR3.ipv4.routingTable\""
par WirelessC.hostR3.ipv4.ip arpModule "\"WirelessC.hostR3.ipv4.arp\""
par WirelessC.hostR3.ipv4.ip icmpModule "\"WirelessC.hostR3.ipv4.icmp\""
par WirelessC.hostR3.ipv4.ip crcMode "\"declared\""
attr enum declared,computed
par WirelessC.hostR3.ipv4.ip timeToLive 32
par WirelessC.hostR3.ipv4.ip multicastTimeToLive 32
par WirelessC.hostR3.ipv4.ip fragmentTimeout 60s
attr unit s
par WirelessC.hostR3.ipv4.ip limitedBroadcast false
par WirelessC.hostR3.ipv4.ip directBroadcastInterfaces "\"\""
scalar WirelessC.hostR3.ipv4.ip packetDropAddressResolutionFailed:count 0
attr interpolationmode none
attr recordingmode count
attr source packetDropReasonIsAddressResolutionFailed(packetDropped)
attr title "packet drop: address resolution failed, count"
scalar WirelessC.hostR3.ipv4.ip packetDropAddressResolutionFailed:sum(packetBytes) 0
attr interpolationmode none
attr recordingmode sum(packetBytes)
attr source packetDropReasonIsAddressResolutionFailed(packetDropped)
attr title "packet drop: address resolution failed, sum(packetBytes)"
scalar WirelessC.hostR3.ipv4.ip packetDropHopLimitReached:count 0
attr interpolationmode none
attr recordingmode count
attr source packetDropReasonIsHopLimitReached(packetDropped)
attr title "packet drop: hop limit reached, count"
scalar WirelessC.hostR3.ipv4.ip packetDropHopLimitReached:sum(packetBytes) 0
attr interpolationmode none
attr recordingmode sum(packetBytes)
attr source packetDropReasonIsHopLimitReached(packetDropped)
attr title "packet drop: hop limit reached, sum(packetBytes)"
scalar WirelessC.hostR3.ipv4.ip packetDropForwardingDisabled:count 0
attr interpolationmode none
attr recordingmode count
attr source packetDropReasonIsForwardingDisabled(packetDropped)
attr title "packet drop: forwarding disabled, count"
scalar WirelessC.hostR3.ipv4.ip packetDropForwardingDisabled:sum(packetBytes) 0
attr interpolationmode none
attr recordingmode sum(packetBytes)
attr source packetDropReasonIsForwardingDisabled(packetDropped)
attr title "packet drop: forwarding disabled, sum(packetBytes)"
scalar WirelessC.hostR3.ipv4.ip packetDropNoInterfaceFound:count 0
attr interpolationmode none
attr recordingmode count
attr source packetDropReasonIsNoInterfaceFound(packetDropped)
attr title "packet drop: no interface found, count"
scalar WirelessC.hostR3.ipv4.ip packetDropNoInterfaceFound:sum(packetBytes) 0
attr interpolationmode none
attr recordingmode sum(packetBytes)
attr source packetDropReasonIsNoInterfaceFound(packetDropped)
attr title "packet drop: no interface found, sum(packetBytes)"
scalar WirelessC.hostR3.ipv4.ip packetDropNoRouteFound:count 0
attr interpolationmode none
attr recordingmode count
attr source packetDropReasonIsNoRouteFound(packetDropped)
attr title "packet drop: no route found, count"
scalar WirelessC.hostR3.ipv4.ip packetDropNoRouteFound:sum(packetBytes) 0
attr interpolationmode none
attr recordingmode sum(packetBytes)
attr source packetDropReasonIsNoRouteFound(packetDropped)
attr title "packet drop: no route found, sum(packetBytes)"
scalar WirelessC.hostR3.ipv4.ip packetDropUndefined:count 0
attr interpolationmode none
attr recordingmode count
attr source packetDropReasonIsUndefined(packetDropped)
attr title "packet drop: undefined, count"
scalar WirelessC.hostR3.ipv4.ip packetDropUndefined:sum(packetBytes) 0
attr interpolationmode none
attr recordingmode sum(packetBytes)
attr source packetDropReasonIsUndefined(packetDropped)
attr title "packet drop: undefined, sum(packetBytes)"
par WirelessC.hostR3.ipv4.arp typename "\"inet.networklayer.arp.ipv4.GlobalArp\""
par WirelessC.hostR3.ipv4.arp interfaceTableModule "\"WirelessC.hostR3.interfaceTable\""
par WirelessC.hostR3.ipv4.arp addressType "\"ipv4\""
attr enum ipv4,ipv6,mac,moduleid,modulepath
par WirelessC.hostR3.ipv4.lp typename "\"inet.common.MessageDispatcher\""
par WirelessC.hostR3.ipv4.lp displayStringTextFormat "\"processed %p pk (%l)\""
par WirelessC.hostR3.ipv4.lp forwardServiceRegistration true
par WirelessC.hostR3.ipv4.lp forwardProtocolRegistration true
par WirelessC.hostR3.ipv4 typename "\"inet.networklayer.ipv4.Ipv4NetworkLayer\""
par WirelessC.hostR3.ipv4 forwarding true
par WirelessC.hostR3.ipv4 multicastForwarding false
par WirelessC.hostR3.ipv4 interfaceTableModule "\"WirelessC.hostR3.interfaceTable\""
par WirelessC.hostR3.ipv4 displayStringTextFormat "\"%i\""
par WirelessC.hostR3.nl typename "\"inet.common.MessageDispatcher\""
par WirelessC.hostR3.nl displayStringTextFormat "\"processed %p pk (%l)\""
par WirelessC.hostR3.nl forwardServiceRegistration true
par WirelessC.hostR3.nl forwardProtocolRegistration true
par WirelessC.hostR3.udp typename "\"inet.transportlayer.udp.Udp\""
par WirelessC.hostR3.udp interfaceTableModule "\"WirelessC.hostR3.interfaceTable\""
par WirelessC.hostR3.udp icmpModule "\"^.ipv4.icmp\""
par WirelessC.hostR3.udp icmpv6Module "\"^.ipv6.icmpv6\""
par WirelessC.hostR3.udp crcMode "\"declared\""
attr enum disabled,declared,computed
par WirelessC.hostR3.udp defaultMulticastLoop true
scalar WirelessC.hostR3.udp packetReceived:count 1
attr interpolationmode none
attr recordingmode count
attr source packetReceived
attr title "packets received, count"
scalar WirelessC.hostR3.udp packetReceived:sum(packetBytes) 32
attr interpolationmode none
attr recordingmode sum(packetBytes)
attr source packetReceived
attr title "packets received, sum(packetBytes)"
scalar WirelessC.hostR3.udp packetSent:count 0
attr interpolationmode none
attr recordingmode count
attr source packetSent
attr title "packets sent, count"
scalar WirelessC.hostR3.udp packetSent:sum(packetBytes) 0
attr interpolationmode none
attr recordingmode sum(packetBytes)
attr source packetSent
attr title "packets sent, sum(packetBytes)"
scalar WirelessC.hostR3.udp passedUpPk:count 1
attr interpolationmode none
attr recordingmode count
attr source packetSentToUpper
attr title "packets passed up, count"
scalar WirelessC.hostR3.udp droppedPkWrongPort:count 0
attr interpolationmode none
attr recordingmode count
attr source packetDropReasonIsNoPortFound(packetDropped)
attr title "packets dropped (wrong port), count"
scalar WirelessC.hostR3.udp droppedPkBadChecksum:count 0
attr interpolationmode none
attr recordingmode count
attr source packetDropReasonIsIncorrectlyReceived(packetDropped)
attr title "packets dropped (checksum error), count"
par WirelessC.hostR3.tcp typename "\"inet.transportlayer.tcp.Tcp\""
par WirelessC.hostR3.tcp crcMode "\"declared\""
attr enum declared,computed
par WirelessC.hostR3.tcp advertisedWindow 7504
par WirelessC.hostR3.tcp delayedAcksEnabled false
par WirelessC.hostR3.tcp nagleEnabled true
par WirelessC.hostR3.tcp limitedTransmitEnabled false
par WirelessC.hostR3.tcp increasedIWEnabled false
par WirelessC.hostR3.tcp sackSupport false
par WirelessC.hostR3.tcp windowScalingSupport false
par WirelessC.hostR3.tcp windowScalingFactor -1
par WirelessC.hostR3.tcp timestampSupport false
par WirelessC.hostR3.tcp mss 536
par WirelessC.hostR3.tcp msl 120s
attr unit s
par WirelessC.hostR3.tcp tcpAlgorithmClass "\"TcpReno\""
par WirelessC.hostR3.tcp useDataNotification false
par WirelessC.hostR3.tcp dupthresh 3
par WirelessC.hostR3.tcp initialSsthresh 4294967295
par WirelessC.hostR3.tcp stopOperationExtraTime 0s
attr unit s
par WirelessC.hostR3.tcp stopOperationTimeout 2s
attr unit s
par WirelessC.hostR3.tcp ecnWillingness false
par WirelessC.hostR3.tcp dctcpGamma 0.0625
par WirelessC.hostR3.tn typename "\"inet.common.MessageDispatcher\""
par WirelessC.hostR3.tn displayStringTextFormat "\"processed %p pk (%l)\""
par WirelessC.hostR3.tn forwardServiceRegistration true
par WirelessC.hostR3.tn forwardProtocolRegistration true
par WirelessC.hostR3.at typename "\"inet.common.MessageDispatcher\""
par WirelessC.hostR3.at displayStringTextFormat "\"processed %p pk (%l)\""
par WirelessC.hostR3.at forwardServiceRegistration true
par WirelessC.hostR3.at forwardProtocolRegistration true
par WirelessC.hostR3.aodv typename "\"inet.routing.aodv.Aodv\""
par WirelessC.hostR3.aodv routingTableModule "\"^.ipv4.routingTable\""
par WirelessC.hostR3.aodv interfaceTableModule "\"WirelessC.hostR3.interfaceTable\""
par WirelessC.hostR3.aodv networkProtocolModule "\"^.ipv4.ip\""
par WirelessC.hostR3.aodv askGratuitousRREP false
par WirelessC.hostR3.aodv useHelloMessages false
par WirelessC.hostR3.aodv useLocalRepair false
par WirelessC.hostR3.aodv destinationOnlyFlag false
par WirelessC.hostR3.aodv udpPort 654
par WirelessC.hostR3.aodv interface "\"wlan0\""
par WirelessC.hostR3.aodv maxPeriodicJitter 0.25s
attr unit s
par WirelessC.hostR3.aodv periodicJitter "uniform(0s, maxPeriodicJitter)"
attr unit s
par WirelessC.hostR3.aodv maxJitter 0.005s
attr unit s
par WirelessC.hostR3.aodv jitter "uniform(0ms, maxJitter)"
attr unit s
par WirelessC.hostR3.aodv helloInterval 1s
attr unit s
par WirelessC.hostR3.aodv allowedHelloLoss 2
par WirelessC.hostR3.aodv activeRouteTimeout 3s
attr unit s
par WirelessC.hostR3.aodv netDiameter 35
par WirelessC.hostR3.aodv nodeTraversalTime 0.04s
attr unit s
par WirelessC.hostR3.aodv rerrRatelimit 10
par WirelessC.hostR3.aodv rreqRetries 2
par WirelessC.hostR3.aodv rreqRatelimit 10
par WirelessC.hostR3.aodv timeoutBuffer 2
par WirelessC.hostR3.aodv ttlStart 2
par WirelessC.hostR3.aodv ttlIncrement 2
par WirelessC.hostR3.aodv ttlThreshold 7
par WirelessC.hostR3.aodv localAddTTL 2
par WirelessC.hostR3.aodv myRouteTimeout 6s
attr unit s
par WirelessC.hostR3.aodv deletePeriod 15s
attr unit s
par WirelessC.hostR3.aodv blacklistTimeout 5.6s
attr unit s
par WirelessC.hostR3.aodv netTraversalTime 2.8s
attr unit s
par WirelessC.hostR3.aodv nextHopWait 0.05s
attr unit s
par WirelessC.hostR3.aodv pathDiscoveryTime 5.6s
attr unit s
par WirelessC.hostR3 typename "\"inet.node.aodv.AodvRouter\""
par WirelessC.hostR3 hasStatus false
par WirelessC.hostR3 osgModel "\"\""
par WirelessC.hostR3 osgModelColor "\"\""
par WirelessC.hostR3 canvasImage "\"\""
par WirelessC.hostR3 canvasImageColor "\"\""
par WirelessC.hostR3 recordPcap false
par WirelessC.hostR3 numPcapRecorders 0
par WirelessC.hostR3 numLoInterfaces 1
par WirelessC.hostR3 numWlanInterfaces 1
par WirelessC.hostR3 numEthInterfaces 0
par WirelessC.hostR3 numPppInterfaces 0
par WirelessC.hostR3 numTunInterfaces 0
par WirelessC.hostR3 numVirtInterfaces 0
par WirelessC.hostR3 fcsMode "\"declared\""
attr enum declared,computed
par WirelessC.hostR3 hasIpv4 true
par WirelessC.hostR3 hasIpv6 false
par WirelessC.hostR3 hasGn false
par WirelessC.hostR3 forwarding true
par WirelessC.hostR3 multicastForwarding false
par WirelessC.hostR3 hasUdp true
par WirelessC.hostR3 hasTcp true
par WirelessC.hostR3 hasSctp false
par WirelessC.hostR3 numApps 0
par WirelessC.physicalEnvironment.ground typename "\"inet.environment.ground.FlatGround\""
par WirelessC.physicalEnvironment.ground elevation 0m
attr unit m
par WirelessC.physicalEnvironment typename "\"inet.environment.common.PhysicalEnvironment\""
par WirelessC.physicalEnvironment coordinateSystemModule "\"\""
par WirelessC.physicalEnvironment temperature 293K
attr unit K
par WirelessC.physicalEnvironment spaceMinX "nan m"
attr unit m
par WirelessC.physicalEnvironment spaceMinY "nan m"
attr unit m
par WirelessC.physicalEnvironment spaceMinZ "nan m"
attr unit m
par WirelessC.physicalEnvironment spaceMaxX "nan m"
attr unit m
par WirelessC.physicalEnvironment spaceMaxY "nan m"
attr unit m
par WirelessC.physicalEnvironment spaceMaxZ "nan m"
attr unit m
par WirelessC.physicalEnvironment config "<environment>...</environment> at /Users/eogul/Desktop/CENG797/omnetpp-6.2.0/samples/mst-based-clustering//walls.xml:1"
par WirelessC typename "\"WirelessC\""

