version 3
run Wireless14-0-20251123-16:43:34-64471
attr configname Wireless14
attr datetime 20251123-16:43:34
attr datetimef 20251123-164334
attr experiment Wireless14
attr inifile omnetpp.ini
attr iterationvars ""
attr iterationvarsd ""
attr iterationvarsf ""
attr measurement ""
attr network WirelessC
attr processid 64471
attr repetition 0
attr replication #0
attr resultdir results
attr runnumber 0
attr seedset 0
config image-path ../inet4.5/images
config description "Introducing antenna gain"
config extends Wireless13
config *.host*.wlan[0].radio.antenna.typename ConstantGainAntenna
config *.host*.wlan[0].radio.antenna.gain 3dB
config description "Configuring a more accurate pathloss model"
config extends Wireless12
config *.physicalEnvironment.ground.typename FlatGround
config *.physicalEnvironment.ground.elevation 0m
config *.radioMedium.pathLoss.typename TwoRayGroundReflection
config description "Changing to a more realistic radio model"
config extends Wireless11
config *.radioMedium.typename ApskScalarRadioMedium
config *.radioMedium.backgroundNoise.power -90dBm
config *.radioMedium.mediumLimitCache.centerFrequency 2GHz
config *.host*.wlan[0].radio.typename ApskScalarRadio
config *.host*.wlan[0].radio.centerFrequency 2GHz
config *.host*.wlan[0].radio.bandwidth 2MHz
config *.host*.wlan[0].radio.transmitter.power 1.4mW
config *.host*.wlan[0].radio.transmitter.preambleDuration 10us
config *.host*.wlan[0].radio.transmitter.headerLength 8B
config *.host*.wlan[0].radio.receiver.sensitivity -85dBm
config *.host*.wlan[0].radio.receiver.energyDetection -85dBm
config *.host*.wlan[0].radio.receiver.snirThreshold 4dB
config *.hostR1.wlan[*].radio.bitErrorRate.result-recording-modes default,+vector
config description "Adding obstacles to the environment"
config extends Wireless10
config network WirelessC
config *.host*.mobility.initialZ 1.7m
config *.physicalEnvironment.config "xmldoc(\"walls.xml\")"
config *.radioMedium.obstacleLoss.typename IdealObstacleLoss
config description "Configuring ad-hoc routing (AODV)"
config extends Wireless09
config *.configurator.addStaticRoutes false
config *.host*.typename AodvRouter
config *.hostB.wlan[0].radio.displayCommunicationRange true
config *.visualizer.dataLinkVisualizer.packetFilter "\"AODV*\""
config description "Configuring node movements"
config extends Wireless08
config *.hostR*.mobility.typename LinearMobility
config *.hostR*.mobility.speed 12mps
config *.hostR*.mobility.initialMovementHeading 270deg
config *.host*.wlan[0].queue.packetCapacity 10
config *.visualizer.mobilityVisualizer.displayVelocities true
config *.visualizer.mobilityVisualizer.displayMovementTrails true
config description "Modeling energy consumption"
config extends Wireless07
config *.host*.wlan[0].radio.energyConsumer.typename StateBasedEpEnergyConsumer
config *.host*.wlan[0].radio.energyConsumer.offPowerConsumption 0mW
config *.host*.wlan[0].radio.energyConsumer.sleepPowerConsumption 1mW
config *.host*.wlan[0].radio.energyConsumer.switchingPowerConsumption 1mW
config *.host*.wlan[0].radio.energyConsumer.receiverIdlePowerConsumption 2mW
config *.host*.wlan[0].radio.energyConsumer.receiverBusyPowerConsumption 5mW
config *.host*.wlan[0].radio.energyConsumer.receiverReceivingPowerConsumption 10mW
config *.host*.wlan[0].radio.energyConsumer.transmitterIdlePowerConsumption 2mW
config *.host*.wlan[0].radio.energyConsumer.transmitterTransmittingPowerConsumption 100mW
config *.host*.energyStorage.typename IdealEpEnergyStorage
config *.host*.wlan[0].radio.displayInterferenceRange false
config *.hostR1.wlan[0].radio.displayCommunicationRange false
config *.visualizer.mediumVisualizer.displaySignals false
config description "Turning on ACKs in CSMA"
config extends Wireless06
config *.host*.wlan[0].mac.useAck true
config description "Using CSMA to better utilize the medium"
config extends Wireless05
config *.host*.wlan[0].typename WirelessInterface
config *.host*.wlan[0].radio.typename UnitDiskRadio
config *.host*.wlan[0].mac.typename CsmaCaMac
config *.host*.wlan[0].mac.ackTimeout 300us
config *.host*.wlan[0].queue.typename DropTailQueue
config *.host*.wlan[0].queue.packetCapacity -1
config description "Taking interference into account"
config extends Wireless04
config *.host*.wlan[0].radio.receiver.ignoreInterference false
config *.host*.wlan[0].radio.transmitter.interferenceRange 500m
config *.hostA.wlan[0].radio.displayInterferenceRange true
config *.visualizer.dataLinkVisualizer.packetFilter "\"\""
config description "Setting up static routing"
config extends Wireless03
config *.host*.forwarding true
config *.configurator.config "xml(\"<config><interface hosts='**' address='10.0.0.x' netmask='255.255.255.0'/><autoroute metric='errorRate'/></config>\")"
config *.configurator.optimizeRoutes false
config *.host*.ipv4.routingTable.netmaskRoutes "\"\""
config *.visualizer.physicalLinkVisualizer.displayLinks true
config *.visualizer.dataLinkVisualizer.displayLinks true
config *.visualizer.networkRouteVisualizer.displayRoutes true
config *.visualizer.*LinkVisualizer.lineShift 0
config *.visualizer.networkRouteVisualizer.lineShift 0
config *.visualizer.networkRouteVisualizer.packetFilter "\"UDPData*\""
config description "Adding more nodes and decreasing the communication range"
config extends Wireless02
config network WirelessB
config *.host*.wlan[0].radio.transmitter.communicationRange 250m
config *.hostR1.wlan[0].radio.displayCommunicationRange true
config description "Setting up some animations"
config extends Wireless01
config *.hostA.wlan[0].radio.displayCommunicationRange true
config *.visualizer.sceneVisualizer.descriptionFigure "\"title\""
config *.visualizer.mediumVisualizer.displaySignals true
config *.visualizer.physicalLinkVisualizer.displayLinks true
config *.visualizer.physicalLinkVisualizer.packetFilter "\"UDPData*\""
config description "Two hosts communicating wirelessly"
config network WirelessA
config sim-time-limit 20s
config *.host*.ipv4.arp.typename GlobalArp
config *.hostA.numApps 1
config *.hostA.app[0].typename UdpBasicApp
config *.hostA.app[0].destAddresses "\"hostB\""
config *.hostA.app[0].destPort 5000
config *.hostA.app[0].messageLength 1000B
config *.hostA.app[0].sendInterval exponential(12ms)
config *.hostA.app[0].packetName "\"UDPData\""
config *.hostB.numApps 1
config *.hostB.app[0].typename UdpSink
config *.hostB.app[0].localPort 5000
config *.host*.wlan[0].typename AckingWirelessInterface
config *.host*.wlan[0].mac.useAck false
config *.host*.wlan[0].mac.fullDuplex false
config *.host*.wlan[0].radio.transmitter.communicationRange 500m
config *.host*.wlan[0].radio.receiver.ignoreInterference true
config *.host*.wlan[0].mac.headerLength 23B
config *.host*.**.bitrate 1Mbps

vector 0 WirelessC.hostA.energyStorage powerConsumption:vector ETV
attr interpolationmode sample-hold
attr recordingmode vector
attr source powerConsumptionChanged
attr title "Power consumption"
attr unit W
vector 1 WirelessC.hostA.energyStorage powerGeneration:vector ETV
attr interpolationmode sample-hold
attr recordingmode vector
attr source powerGenerationChanged
attr title "Power generation"
attr unit W
vector 2 WirelessC.hostA.energyStorage residualEnergyCapacity:vector ETV
attr interpolationmode linear
attr recordingmode vector
attr source residualEnergyCapacityChanged
attr title "Residual energy capacity"
attr unit J
vector 3 WirelessC.hostA.lo[0].lo rcvdPkFromHl:vector(packetBytes) ETV
attr interpolationmode none
attr recordingmode vector(packetBytes)
attr source packetReceivedFromUpper
attr title "packets received from higher layer, packetBytes"
vector 4 WirelessC.hostA.lo[0].lo passedUpPk:vector(packetBytes) ETV
attr interpolationmode none
attr recordingmode vector(packetBytes)
attr source packetSentToUpper
attr title "packets passed to higher layer, packetBytes"
vector 5 WirelessC.hostA.lo[0] packetDropInterfaceDown:vector(packetBytes) ETV
attr interpolationmode none
attr recordingmode vector(packetBytes)
attr source packetDropReasonIsInterfaceDown(packetDropped)
attr title "packet drops: interface down, packetBytes"
vector 6 WirelessC.hostA.lo[0] packetDropNoCarrier:vector(packetBytes) ETV
attr interpolationmode none
attr recordingmode vector(packetBytes)
attr source packetDropReasonIsNoCarrier(packetDropped)
attr title "packet drops: no carrier, packetBytes"
vector 7 WirelessC.hostA.wlan[0].queue queueLength:vector ETV
attr autoWarmupFilter false
attr interpolationmode sample-hold
attr recordingmode vector
attr source "warmup(atomic(constant0(packetPushEnded) + count(packetPushStarted) - count(packetPulled) - count(packetRemoved) - count(packetDropped)))"
attr title "queue length"
attr unit pk
vector 8 WirelessC.hostA.wlan[0].queue queueBitLength:vector ETV
attr autoWarmupFilter false
attr interpolationmode sample-hold
attr recordingmode vector
attr source "warmup(atomic(constant0(packetPushEnded) + sum(packetLength(packetPushStarted)) - sum(packetLength(packetPulled)) - sum(packetLength(packetRemoved)) - sum(packetLength(packetDropped))))"
attr title "queue bit length"
attr unit b
vector 9 WirelessC.hostA.wlan[0].queue queueingTime:vector ETV
attr interpolationmode none
attr recordingmode vector
attr source queueingTime(packetPulled)
attr title "queueing times"
attr unit s
vector 10 WirelessC.hostA.wlan[0].queue incomingPacketLengths:vector ETV
attr interpolationmode none
attr recordingmode vector
attr source packetLength(packetPushStarted)
attr title "incoming packet lengths"
attr unit b
vector 11 WirelessC.hostA.wlan[0].queue incomingDataRate:vector ETV
attr interpolationmode linear
attr recordingmode vector
attr source throughput(packetPushStarted)
attr title "incoming datarate"
attr unit bps
vector 12 WirelessC.hostA.wlan[0].queue outgoingPacketLengths:vector ETV
attr interpolationmode none
attr recordingmode vector
attr source packetLength(packetPulled)
attr title "outgoing packet lengths"
attr unit b
vector 13 WirelessC.hostA.wlan[0].queue outgoingDataRate:vector ETV
attr interpolationmode linear
attr recordingmode vector
attr source throughput(packetPulled)
attr title "outgoing datarate"
attr unit bps
vector 14 WirelessC.hostA.wlan[0].queue droppedPacketLengthsQueueOverflow:vector ETV
attr interpolationmode none
attr recordingmode vector
attr source packetLength(packetDropReasonIsQueueOverflow(packetDropped))
attr title "dropped packet lengths: queue overflow"
attr unit b
vector 15 WirelessC.hostA.wlan[0].queue flowQueueingTime:vector ETV
attr interpolationmode none
attr recordingmode vector
attr source queueingTime(demuxFlow(packetPulled))
attr title "flow queueing times"
attr unit s
vector 16 WirelessC.hostA.wlan[0].queue flowIncomingDataRate:vector ETV
attr interpolationmode linear
attr recordingmode vector
attr source throughput(flowPacketLength(demuxFlow(packetPushStarted)))
attr title "flow specific incoming data rate"
attr unit bps
vector 17 WirelessC.hostA.wlan[0].queue flowOutgoingDataRate:vector ETV
attr interpolationmode linear
attr recordingmode vector
attr source throughput(flowPacketLength(demuxFlow(packetPulled)))
attr title "flow specific outgoing data rate"
attr unit bps
vector 18 WirelessC.hostA.wlan[0].mac packetDropIncorrectlyReceived:vector(packetBytes) ETV
attr interpolationmode none
attr recordingmode vector(packetBytes)
attr source packetDropReasonIsIncorrectlyReceived(packetDropped)
attr title "packet drop: incorrectly received, packetBytes"
vector 19 WirelessC.hostA.wlan[0].mac packetDropNotAddressedToUs:vector(packetBytes) ETV
attr interpolationmode none
attr recordingmode vector(packetBytes)
attr source packetDropReasonIsNotAddressedToUs(packetDropped)
attr title "packet drop: not addressed to us, packetBytes"
vector 20 WirelessC.hostA.wlan[0].mac packetDropQueueOverflow:vector(packetBytes) ETV
attr interpolationmode none
attr recordingmode vector(packetBytes)
attr source packetDropReasonIsQueueOverflow(packetDropped)
attr title "packet drop: queue overflow, packetBytes"
vector 21 WirelessC.hostA.wlan[0].mac packetDropRetryLimitReached:vector(packetBytes) ETV
attr interpolationmode none
attr recordingmode vector(packetBytes)
attr source packetDropReasonIsRetryLimitReached(packetDropped)
attr title "packet drop: retry limit reached, packetBytes"
vector 22 WirelessC.hostA.wlan[0].radio.energyConsumer powerConsumption:vector ETV
attr interpolationmode sample-hold
attr recordingmode vector
attr source powerConsumptionChanged
attr title "Power consumption"
attr unit W
vector 23 WirelessC.hostA.wlan[0].radio radioMode:vector ETV
attr interpolationmode sample-hold
attr recordingmode vector
attr source radioModeChanged
attr title "Radio mode"
vector 24 WirelessC.hostA.wlan[0].radio receptionState:vector ETV
attr interpolationmode sample-hold
attr recordingmode vector
attr source receptionStateChanged
attr title "Radio reception state"
vector 25 WirelessC.hostA.wlan[0].radio transmissionState:vector ETV
attr interpolationmode sample-hold
attr recordingmode vector
attr source transmissionStateChanged
attr title "Radio transmission state"
vector 26 WirelessC.hostA.wlan[0].radio packetDropped:vector(packetBytes) ETV
attr interpolationmode none
attr recordingmode vector(packetBytes)
attr title "packets dropped, packetBytes"
vector 27 WirelessC.hostA.wlan[0] packetDropInterfaceDown:vector(packetBytes) ETV
attr interpolationmode none
attr recordingmode vector(packetBytes)
attr source packetDropReasonIsInterfaceDown(packetDropped)
attr title "packet drops: interface down, packetBytes"
vector 28 WirelessC.hostA.wlan[0] packetDropNoCarrier:vector(packetBytes) ETV
attr interpolationmode none
attr recordingmode vector(packetBytes)
attr source packetDropReasonIsNoCarrier(packetDropped)
attr title "packet drops: no carrier, packetBytes"
vector 29 WirelessC.hostA.ipv4.ip packetDropAddressResolutionFailed:vector(packetBytes) ETV
attr interpolationmode none
attr recordingmode vector(packetBytes)
attr source packetDropReasonIsAddressResolutionFailed(packetDropped)
attr title "packet drop: address resolution failed, packetBytes"
vector 30 WirelessC.hostA.ipv4.ip packetDropHopLimitReached:vector(packetBytes) ETV
attr interpolationmode none
attr recordingmode vector(packetBytes)
attr source packetDropReasonIsHopLimitReached(packetDropped)
attr title "packet drop: hop limit reached, packetBytes"
vector 31 WirelessC.hostA.ipv4.ip packetDropForwardingDisabled:vector(packetBytes) ETV
attr interpolationmode none
attr recordingmode vector(packetBytes)
attr source packetDropReasonIsForwardingDisabled(packetDropped)
attr title "packet drop: forwarding disabled, packetBytes"
vector 32 WirelessC.hostA.ipv4.ip packetDropNoInterfaceFound:vector(packetBytes) ETV
attr interpolationmode none
attr recordingmode vector(packetBytes)
attr source packetDropReasonIsNoInterfaceFound(packetDropped)
attr title "packet drop: no interface found, packetBytes"
vector 33 WirelessC.hostA.ipv4.ip packetDropNoRouteFound:vector(packetBytes) ETV
attr interpolationmode none
attr recordingmode vector(packetBytes)
attr source packetDropReasonIsNoRouteFound(packetDropped)
attr title "packet drop: no route found, packetBytes"
vector 34 WirelessC.hostA.ipv4.ip packetDropUndefined:vector(packetBytes) ETV
attr interpolationmode none
attr recordingmode vector(packetBytes)
attr source packetDropReasonIsUndefined(packetDropped)
attr title "packet drop: undefined, packetBytes"
vector 35 WirelessC.hostA.udp packetSent:vector(packetBytes) ETV
attr interpolationmode none
attr recordingmode vector(packetBytes)
attr source packetSent
attr title "packets sent, packetBytes"
vector 36 WirelessC.hostA.udp packetReceived:vector(packetBytes) ETV
attr interpolationmode none
attr recordingmode vector(packetBytes)
attr source packetReceived
attr title "packets received, packetBytes"
vector 37 WirelessC.hostA.udp passedUpPk:vector(count) ETV
attr interpolationmode none
attr recordingmode vector(count)
attr source packetSentToUpper
attr title "packets passed up, count"
vector 38 WirelessC.hostA.udp droppedPkWrongPort:vector(count) ETV
attr interpolationmode none
attr recordingmode vector(count)
attr source packetDropReasonIsNoPortFound(packetDropped)
attr title "packets dropped (wrong port), count"
vector 39 WirelessC.hostA.udp droppedPkBadChecksum:vector(count) ETV
attr interpolationmode none
attr recordingmode vector(count)
attr source packetDropReasonIsIncorrectlyReceived(packetDropped)
attr title "packets dropped (checksum error), count"
vector 40 WirelessC.hostA.app[0] packetReceived:vector(packetBytes) ETV
attr interpolationmode none
attr recordingmode vector(packetBytes)
attr source packetReceived
attr title "packets received, packetBytes"
vector 41 WirelessC.hostA.app[0] throughput:vector ETV
attr recordingmode vector
attr source throughput(packetReceived)
attr title throughput
attr unit bps
vector 42 WirelessC.hostA.app[0] packetSent:vector(packetBytes) ETV
attr interpolationmode none
attr recordingmode vector(packetBytes)
attr source packetSent
attr title "packets sent, packetBytes"
vector 43 WirelessC.hostA.app[0] rcvdPkLifetime:vector ETV
attr interpolationmode none
attr recordingmode vector
attr source dataAge(packetReceived)
attr title "received packet lifetime"
attr unit s
vector 44 WirelessC.hostA.app[0] rcvdPkSeqNo:vector ETV
attr interpolationmode none
attr recordingmode vector
attr source appPkSeqNo(packetReceived)
attr title "received packet sequence number"
vector 45 WirelessC.hostB.energyStorage powerConsumption:vector ETV
attr interpolationmode sample-hold
attr recordingmode vector
attr source powerConsumptionChanged
attr title "Power consumption"
attr unit W
vector 46 WirelessC.hostB.energyStorage powerGeneration:vector ETV
attr interpolationmode sample-hold
attr recordingmode vector
attr source powerGenerationChanged
attr title "Power generation"
attr unit W
vector 47 WirelessC.hostB.energyStorage residualEnergyCapacity:vector ETV
attr interpolationmode linear
attr recordingmode vector
attr source residualEnergyCapacityChanged
attr title "Residual energy capacity"
attr unit J
vector 48 WirelessC.hostB.lo[0].lo rcvdPkFromHl:vector(packetBytes) ETV
attr interpolationmode none
attr recordingmode vector(packetBytes)
attr source packetReceivedFromUpper
attr title "packets received from higher layer, packetBytes"
vector 49 WirelessC.hostB.lo[0].lo passedUpPk:vector(packetBytes) ETV
attr interpolationmode none
attr recordingmode vector(packetBytes)
attr source packetSentToUpper
attr title "packets passed to higher layer, packetBytes"
vector 50 WirelessC.hostB.lo[0] packetDropInterfaceDown:vector(packetBytes) ETV
attr interpolationmode none
attr recordingmode vector(packetBytes)
attr source packetDropReasonIsInterfaceDown(packetDropped)
attr title "packet drops: interface down, packetBytes"
vector 51 WirelessC.hostB.lo[0] packetDropNoCarrier:vector(packetBytes) ETV
attr interpolationmode none
attr recordingmode vector(packetBytes)
attr source packetDropReasonIsNoCarrier(packetDropped)
attr title "packet drops: no carrier, packetBytes"
vector 52 WirelessC.hostB.wlan[0].queue queueLength:vector ETV
attr autoWarmupFilter false
attr interpolationmode sample-hold
attr recordingmode vector
attr source "warmup(atomic(constant0(packetPushEnded) + count(packetPushStarted) - count(packetPulled) - count(packetRemoved) - count(packetDropped)))"
attr title "queue length"
attr unit pk
vector 53 WirelessC.hostB.wlan[0].queue queueBitLength:vector ETV
attr autoWarmupFilter false
attr interpolationmode sample-hold
attr recordingmode vector
attr source "warmup(atomic(constant0(packetPushEnded) + sum(packetLength(packetPushStarted)) - sum(packetLength(packetPulled)) - sum(packetLength(packetRemoved)) - sum(packetLength(packetDropped))))"
attr title "queue bit length"
attr unit b
vector 54 WirelessC.hostB.wlan[0].queue queueingTime:vector ETV
attr interpolationmode none
attr recordingmode vector
attr source queueingTime(packetPulled)
attr title "queueing times"
attr unit s
vector 55 WirelessC.hostB.wlan[0].queue incomingPacketLengths:vector ETV
attr interpolationmode none
attr recordingmode vector
attr source packetLength(packetPushStarted)
attr title "incoming packet lengths"
attr unit b
vector 56 WirelessC.hostB.wlan[0].queue incomingDataRate:vector ETV
attr interpolationmode linear
attr recordingmode vector
attr source throughput(packetPushStarted)
attr title "incoming datarate"
attr unit bps
vector 57 WirelessC.hostB.wlan[0].queue outgoingPacketLengths:vector ETV
attr interpolationmode none
attr recordingmode vector
attr source packetLength(packetPulled)
attr title "outgoing packet lengths"
attr unit b
vector 58 WirelessC.hostB.wlan[0].queue outgoingDataRate:vector ETV
attr interpolationmode linear
attr recordingmode vector
attr source throughput(packetPulled)
attr title "outgoing datarate"
attr unit bps
vector 59 WirelessC.hostB.wlan[0].queue droppedPacketLengthsQueueOverflow:vector ETV
attr interpolationmode none
attr recordingmode vector
attr source packetLength(packetDropReasonIsQueueOverflow(packetDropped))
attr title "dropped packet lengths: queue overflow"
attr unit b
vector 60 WirelessC.hostB.wlan[0].queue flowQueueingTime:vector ETV
attr interpolationmode none
attr recordingmode vector
attr source queueingTime(demuxFlow(packetPulled))
attr title "flow queueing times"
attr unit s
vector 61 WirelessC.hostB.wlan[0].queue flowIncomingDataRate:vector ETV
attr interpolationmode linear
attr recordingmode vector
attr source throughput(flowPacketLength(demuxFlow(packetPushStarted)))
attr title "flow specific incoming data rate"
attr unit bps
vector 62 WirelessC.hostB.wlan[0].queue flowOutgoingDataRate:vector ETV
attr interpolationmode linear
attr recordingmode vector
attr source throughput(flowPacketLength(demuxFlow(packetPulled)))
attr title "flow specific outgoing data rate"
attr unit bps
vector 63 WirelessC.hostB.wlan[0].mac packetDropIncorrectlyReceived:vector(packetBytes) ETV
attr interpolationmode none
attr recordingmode vector(packetBytes)
attr source packetDropReasonIsIncorrectlyReceived(packetDropped)
attr title "packet drop: incorrectly received, packetBytes"
vector 64 WirelessC.hostB.wlan[0].mac packetDropNotAddressedToUs:vector(packetBytes) ETV
attr interpolationmode none
attr recordingmode vector(packetBytes)
attr source packetDropReasonIsNotAddressedToUs(packetDropped)
attr title "packet drop: not addressed to us, packetBytes"
vector 65 WirelessC.hostB.wlan[0].mac packetDropQueueOverflow:vector(packetBytes) ETV
attr interpolationmode none
attr recordingmode vector(packetBytes)
attr source packetDropReasonIsQueueOverflow(packetDropped)
attr title "packet drop: queue overflow, packetBytes"
vector 66 WirelessC.hostB.wlan[0].mac packetDropRetryLimitReached:vector(packetBytes) ETV
attr interpolationmode none
attr recordingmode vector(packetBytes)
attr source packetDropReasonIsRetryLimitReached(packetDropped)
attr title "packet drop: retry limit reached, packetBytes"
vector 67 WirelessC.hostB.wlan[0].radio.energyConsumer powerConsumption:vector ETV
attr interpolationmode sample-hold
attr recordingmode vector
attr source powerConsumptionChanged
attr title "Power consumption"
attr unit W
vector 68 WirelessC.hostB.wlan[0].radio radioMode:vector ETV
attr interpolationmode sample-hold
attr recordingmode vector
attr source radioModeChanged
attr title "Radio mode"
vector 69 WirelessC.hostB.wlan[0].radio receptionState:vector ETV
attr interpolationmode sample-hold
attr recordingmode vector
attr source receptionStateChanged
attr title "Radio reception state"
vector 70 WirelessC.hostB.wlan[0].radio transmissionState:vector ETV
attr interpolationmode sample-hold
attr recordingmode vector
attr source transmissionStateChanged
attr title "Radio transmission state"
vector 71 WirelessC.hostB.wlan[0].radio packetDropped:vector(packetBytes) ETV
attr interpolationmode none
attr recordingmode vector(packetBytes)
attr title "packets dropped, packetBytes"
vector 72 WirelessC.hostB.wlan[0] packetDropInterfaceDown:vector(packetBytes) ETV
attr interpolationmode none
attr recordingmode vector(packetBytes)
attr source packetDropReasonIsInterfaceDown(packetDropped)
attr title "packet drops: interface down, packetBytes"
vector 73 WirelessC.hostB.wlan[0] packetDropNoCarrier:vector(packetBytes) ETV
attr interpolationmode none
attr recordingmode vector(packetBytes)
attr source packetDropReasonIsNoCarrier(packetDropped)
attr title "packet drops: no carrier, packetBytes"
vector 74 WirelessC.hostB.ipv4.ip packetDropAddressResolutionFailed:vector(packetBytes) ETV
attr interpolationmode none
attr recordingmode vector(packetBytes)
attr source packetDropReasonIsAddressResolutionFailed(packetDropped)
attr title "packet drop: address resolution failed, packetBytes"
vector 75 WirelessC.hostB.ipv4.ip packetDropHopLimitReached:vector(packetBytes) ETV
attr interpolationmode none
attr recordingmode vector(packetBytes)
attr source packetDropReasonIsHopLimitReached(packetDropped)
attr title "packet drop: hop limit reached, packetBytes"
vector 76 WirelessC.hostB.ipv4.ip packetDropForwardingDisabled:vector(packetBytes) ETV
attr interpolationmode none
attr recordingmode vector(packetBytes)
attr source packetDropReasonIsForwardingDisabled(packetDropped)
attr title "packet drop: forwarding disabled, packetBytes"
vector 77 WirelessC.hostB.ipv4.ip packetDropNoInterfaceFound:vector(packetBytes) ETV
attr interpolationmode none
attr recordingmode vector(packetBytes)
attr source packetDropReasonIsNoInterfaceFound(packetDropped)
attr title "packet drop: no interface found, packetBytes"
vector 78 WirelessC.hostB.ipv4.ip packetDropNoRouteFound:vector(packetBytes) ETV
attr interpolationmode none
attr recordingmode vector(packetBytes)
attr source packetDropReasonIsNoRouteFound(packetDropped)
attr title "packet drop: no route found, packetBytes"
vector 79 WirelessC.hostB.ipv4.ip packetDropUndefined:vector(packetBytes) ETV
attr interpolationmode none
attr recordingmode vector(packetBytes)
attr source packetDropReasonIsUndefined(packetDropped)
attr title "packet drop: undefined, packetBytes"
vector 80 WirelessC.hostB.udp packetSent:vector(packetBytes) ETV
attr interpolationmode none
attr recordingmode vector(packetBytes)
attr source packetSent
attr title "packets sent, packetBytes"
vector 81 WirelessC.hostB.udp packetReceived:vector(packetBytes) ETV
attr interpolationmode none
attr recordingmode vector(packetBytes)
attr source packetReceived
attr title "packets received, packetBytes"
vector 82 WirelessC.hostB.udp passedUpPk:vector(count) ETV
attr interpolationmode none
attr recordingmode vector(count)
attr source packetSentToUpper
attr title "packets passed up, count"
vector 83 WirelessC.hostB.udp droppedPkWrongPort:vector(count) ETV
attr interpolationmode none
attr recordingmode vector(count)
attr source packetDropReasonIsNoPortFound(packetDropped)
attr title "packets dropped (wrong port), count"
vector 84 WirelessC.hostB.udp droppedPkBadChecksum:vector(count) ETV
attr interpolationmode none
attr recordingmode vector(count)
attr source packetDropReasonIsIncorrectlyReceived(packetDropped)
attr title "packets dropped (checksum error), count"
vector 85 WirelessC.hostB.app[0] packetReceived:vector(packetBytes) ETV
attr interpolationmode none
attr recordingmode vector(packetBytes)
attr source packetReceived
attr title "packets received, packetBytes"
vector 86 WirelessC.hostB.app[0] throughput:vector ETV
attr recordingmode vector
attr source throughput(packetReceived)
attr title throughput
attr unit bps
vector 87 WirelessC.hostB.app[0] endToEndDelay:vector ETV
attr interpolationmode none
attr recordingmode vector
attr source dataAge(packetReceived)
attr title "end-to-end delay"
attr unit s
vector 88 WirelessC.hostB.app[0] rcvdPkSeqNo:vector ETV
attr interpolationmode none
attr recordingmode vector
attr source appPkSeqNo(packetReceived)
attr title "received packet sequence number"
vector 89 WirelessC.hostR1.energyStorage powerConsumption:vector ETV
attr interpolationmode sample-hold
attr recordingmode vector
attr source powerConsumptionChanged
attr title "Power consumption"
attr unit W
vector 90 WirelessC.hostR1.energyStorage powerGeneration:vector ETV
attr interpolationmode sample-hold
attr recordingmode vector
attr source powerGenerationChanged
attr title "Power generation"
attr unit W
vector 91 WirelessC.hostR1.energyStorage residualEnergyCapacity:vector ETV
attr interpolationmode linear
attr recordingmode vector
attr source residualEnergyCapacityChanged
attr title "Residual energy capacity"
attr unit J
vector 92 WirelessC.hostR1.lo[0].lo rcvdPkFromHl:vector(packetBytes) ETV
attr interpolationmode none
attr recordingmode vector(packetBytes)
attr source packetReceivedFromUpper
attr title "packets received from higher layer, packetBytes"
vector 93 WirelessC.hostR1.lo[0].lo passedUpPk:vector(packetBytes) ETV
attr interpolationmode none
attr recordingmode vector(packetBytes)
attr source packetSentToUpper
attr title "packets passed to higher layer, packetBytes"
vector 94 WirelessC.hostR1.lo[0] packetDropInterfaceDown:vector(packetBytes) ETV
attr interpolationmode none
attr recordingmode vector(packetBytes)
attr source packetDropReasonIsInterfaceDown(packetDropped)
attr title "packet drops: interface down, packetBytes"
vector 95 WirelessC.hostR1.lo[0] packetDropNoCarrier:vector(packetBytes) ETV
attr interpolationmode none
attr recordingmode vector(packetBytes)
attr source packetDropReasonIsNoCarrier(packetDropped)
attr title "packet drops: no carrier, packetBytes"
vector 96 WirelessC.hostR1.wlan[0].queue queueLength:vector ETV
attr autoWarmupFilter false
attr interpolationmode sample-hold
attr recordingmode vector
attr source "warmup(atomic(constant0(packetPushEnded) + count(packetPushStarted) - count(packetPulled) - count(packetRemoved) - count(packetDropped)))"
attr title "queue length"
attr unit pk
vector 97 WirelessC.hostR1.wlan[0].queue queueBitLength:vector ETV
attr autoWarmupFilter false
attr interpolationmode sample-hold
attr recordingmode vector
attr source "warmup(atomic(constant0(packetPushEnded) + sum(packetLength(packetPushStarted)) - sum(packetLength(packetPulled)) - sum(packetLength(packetRemoved)) - sum(packetLength(packetDropped))))"
attr title "queue bit length"
attr unit b
vector 98 WirelessC.hostR1.wlan[0].queue queueingTime:vector ETV
attr interpolationmode none
attr recordingmode vector
attr source queueingTime(packetPulled)
attr title "queueing times"
attr unit s
vector 99 WirelessC.hostR1.wlan[0].queue incomingPacketLengths:vector ETV
attr interpolationmode none
attr recordingmode vector
attr source packetLength(packetPushStarted)
attr title "incoming packet lengths"
attr unit b
vector 100 WirelessC.hostR1.wlan[0].queue incomingDataRate:vector ETV
attr interpolationmode linear
attr recordingmode vector
attr source throughput(packetPushStarted)
attr title "incoming datarate"
attr unit bps
vector 101 WirelessC.hostR1.wlan[0].queue outgoingPacketLengths:vector ETV
attr interpolationmode none
attr recordingmode vector
attr source packetLength(packetPulled)
attr title "outgoing packet lengths"
attr unit b
vector 102 WirelessC.hostR1.wlan[0].queue outgoingDataRate:vector ETV
attr interpolationmode linear
attr recordingmode vector
attr source throughput(packetPulled)
attr title "outgoing datarate"
attr unit bps
vector 103 WirelessC.hostR1.wlan[0].queue droppedPacketLengthsQueueOverflow:vector ETV
attr interpolationmode none
attr recordingmode vector
attr source packetLength(packetDropReasonIsQueueOverflow(packetDropped))
attr title "dropped packet lengths: queue overflow"
attr unit b
vector 104 WirelessC.hostR1.wlan[0].queue flowQueueingTime:vector ETV
attr interpolationmode none
attr recordingmode vector
attr source queueingTime(demuxFlow(packetPulled))
attr title "flow queueing times"
attr unit s
vector 105 WirelessC.hostR1.wlan[0].queue flowIncomingDataRate:vector ETV
attr interpolationmode linear
attr recordingmode vector
attr source throughput(flowPacketLength(demuxFlow(packetPushStarted)))
attr title "flow specific incoming data rate"
attr unit bps
vector 106 WirelessC.hostR1.wlan[0].queue flowOutgoingDataRate:vector ETV
attr interpolationmode linear
attr recordingmode vector
attr source throughput(flowPacketLength(demuxFlow(packetPulled)))
attr title "flow specific outgoing data rate"
attr unit bps
vector 107 WirelessC.hostR1.wlan[0].mac packetDropIncorrectlyReceived:vector(packetBytes) ETV
attr interpolationmode none
attr recordingmode vector(packetBytes)
attr source packetDropReasonIsIncorrectlyReceived(packetDropped)
attr title "packet drop: incorrectly received, packetBytes"
vector 108 WirelessC.hostR1.wlan[0].mac packetDropNotAddressedToUs:vector(packetBytes) ETV
attr interpolationmode none
attr recordingmode vector(packetBytes)
attr source packetDropReasonIsNotAddressedToUs(packetDropped)
attr title "packet drop: not addressed to us, packetBytes"
vector 109 WirelessC.hostR1.wlan[0].mac packetDropQueueOverflow:vector(packetBytes) ETV
attr interpolationmode none
attr recordingmode vector(packetBytes)
attr source packetDropReasonIsQueueOverflow(packetDropped)
attr title "packet drop: queue overflow, packetBytes"
vector 110 WirelessC.hostR1.wlan[0].mac packetDropRetryLimitReached:vector(packetBytes) ETV
attr interpolationmode none
attr recordingmode vector(packetBytes)
attr source packetDropReasonIsRetryLimitReached(packetDropped)
attr title "packet drop: retry limit reached, packetBytes"
vector 111 WirelessC.hostR1.wlan[0].radio.energyConsumer powerConsumption:vector ETV
attr interpolationmode sample-hold
attr recordingmode vector
attr source powerConsumptionChanged
attr title "Power consumption"
attr unit W
vector 112 WirelessC.hostR1.wlan[0].radio radioMode:vector ETV
attr interpolationmode sample-hold
attr recordingmode vector
attr source radioModeChanged
attr title "Radio mode"
vector 113 WirelessC.hostR1.wlan[0].radio receptionState:vector ETV
attr interpolationmode sample-hold
attr recordingmode vector
attr source receptionStateChanged
attr title "Radio reception state"
vector 114 WirelessC.hostR1.wlan[0].radio transmissionState:vector ETV
attr interpolationmode sample-hold
attr recordingmode vector
attr source transmissionStateChanged
attr title "Radio transmission state"
vector 115 WirelessC.hostR1.wlan[0].radio bitErrorRate:vector ETV
attr recordingmode vector
attr source bitErrorRate(packetSentToUpper)
attr title "Bit error rate"
vector 116 WirelessC.hostR1.wlan[0].radio packetDropped:vector(packetBytes) ETV
attr interpolationmode none
attr recordingmode vector(packetBytes)
attr title "packets dropped, packetBytes"
vector 117 WirelessC.hostR1.wlan[0] packetDropInterfaceDown:vector(packetBytes) ETV
attr interpolationmode none
attr recordingmode vector(packetBytes)
attr source packetDropReasonIsInterfaceDown(packetDropped)
attr title "packet drops: interface down, packetBytes"
vector 118 WirelessC.hostR1.wlan[0] packetDropNoCarrier:vector(packetBytes) ETV
attr interpolationmode none
attr recordingmode vector(packetBytes)
attr source packetDropReasonIsNoCarrier(packetDropped)
attr title "packet drops: no carrier, packetBytes"
vector 119 WirelessC.hostR1.ipv4.ip packetDropAddressResolutionFailed:vector(packetBytes) ETV
attr interpolationmode none
attr recordingmode vector(packetBytes)
attr source packetDropReasonIsAddressResolutionFailed(packetDropped)
attr title "packet drop: address resolution failed, packetBytes"
vector 120 WirelessC.hostR1.ipv4.ip packetDropHopLimitReached:vector(packetBytes) ETV
attr interpolationmode none
attr recordingmode vector(packetBytes)
attr source packetDropReasonIsHopLimitReached(packetDropped)
attr title "packet drop: hop limit reached, packetBytes"
vector 121 WirelessC.hostR1.ipv4.ip packetDropForwardingDisabled:vector(packetBytes) ETV
attr interpolationmode none
attr recordingmode vector(packetBytes)
attr source packetDropReasonIsForwardingDisabled(packetDropped)
attr title "packet drop: forwarding disabled, packetBytes"
vector 122 WirelessC.hostR1.ipv4.ip packetDropNoInterfaceFound:vector(packetBytes) ETV
attr interpolationmode none
attr recordingmode vector(packetBytes)
attr source packetDropReasonIsNoInterfaceFound(packetDropped)
attr title "packet drop: no interface found, packetBytes"
vector 123 WirelessC.hostR1.ipv4.ip packetDropNoRouteFound:vector(packetBytes) ETV
attr interpolationmode none
attr recordingmode vector(packetBytes)
attr source packetDropReasonIsNoRouteFound(packetDropped)
attr title "packet drop: no route found, packetBytes"
vector 124 WirelessC.hostR1.ipv4.ip packetDropUndefined:vector(packetBytes) ETV
attr interpolationmode none
attr recordingmode vector(packetBytes)
attr source packetDropReasonIsUndefined(packetDropped)
attr title "packet drop: undefined, packetBytes"
vector 125 WirelessC.hostR1.udp packetSent:vector(packetBytes) ETV
attr interpolationmode none
attr recordingmode vector(packetBytes)
attr source packetSent
attr title "packets sent, packetBytes"
vector 126 WirelessC.hostR1.udp packetReceived:vector(packetBytes) ETV
attr interpolationmode none
attr recordingmode vector(packetBytes)
attr source packetReceived
attr title "packets received, packetBytes"
vector 127 WirelessC.hostR1.udp passedUpPk:vector(count) ETV
attr interpolationmode none
attr recordingmode vector(count)
attr source packetSentToUpper
attr title "packets passed up, count"
vector 128 WirelessC.hostR1.udp droppedPkWrongPort:vector(count) ETV
attr interpolationmode none
attr recordingmode vector(count)
attr source packetDropReasonIsNoPortFound(packetDropped)
attr title "packets dropped (wrong port), count"
vector 129 WirelessC.hostR1.udp droppedPkBadChecksum:vector(count) ETV
attr interpolationmode none
attr recordingmode vector(count)
attr source packetDropReasonIsIncorrectlyReceived(packetDropped)
attr title "packets dropped (checksum error), count"
vector 130 WirelessC.hostR2.energyStorage powerConsumption:vector ETV
attr interpolationmode sample-hold
attr recordingmode vector
attr source powerConsumptionChanged
attr title "Power consumption"
attr unit W
vector 131 WirelessC.hostR2.energyStorage powerGeneration:vector ETV
attr interpolationmode sample-hold
attr recordingmode vector
attr source powerGenerationChanged
attr title "Power generation"
attr unit W
vector 132 WirelessC.hostR2.energyStorage residualEnergyCapacity:vector ETV
attr interpolationmode linear
attr recordingmode vector
attr source residualEnergyCapacityChanged
attr title "Residual energy capacity"
attr unit J
vector 133 WirelessC.hostR2.lo[0].lo rcvdPkFromHl:vector(packetBytes) ETV
attr interpolationmode none
attr recordingmode vector(packetBytes)
attr source packetReceivedFromUpper
attr title "packets received from higher layer, packetBytes"
vector 134 WirelessC.hostR2.lo[0].lo passedUpPk:vector(packetBytes) ETV
attr interpolationmode none
attr recordingmode vector(packetBytes)
attr source packetSentToUpper
attr title "packets passed to higher layer, packetBytes"
vector 135 WirelessC.hostR2.lo[0] packetDropInterfaceDown:vector(packetBytes) ETV
attr interpolationmode none
attr recordingmode vector(packetBytes)
attr source packetDropReasonIsInterfaceDown(packetDropped)
attr title "packet drops: interface down, packetBytes"
vector 136 WirelessC.hostR2.lo[0] packetDropNoCarrier:vector(packetBytes) ETV
attr interpolationmode none
attr recordingmode vector(packetBytes)
attr source packetDropReasonIsNoCarrier(packetDropped)
attr title "packet drops: no carrier, packetBytes"
vector 137 WirelessC.hostR2.wlan[0].queue queueLength:vector ETV
attr autoWarmupFilter false
attr interpolationmode sample-hold
attr recordingmode vector
attr source "warmup(atomic(constant0(packetPushEnded) + count(packetPushStarted) - count(packetPulled) - count(packetRemoved) - count(packetDropped)))"
attr title "queue length"
attr unit pk
vector 138 WirelessC.hostR2.wlan[0].queue queueBitLength:vector ETV
attr autoWarmupFilter false
attr interpolationmode sample-hold
attr recordingmode vector
attr source "warmup(atomic(constant0(packetPushEnded) + sum(packetLength(packetPushStarted)) - sum(packetLength(packetPulled)) - sum(packetLength(packetRemoved)) - sum(packetLength(packetDropped))))"
attr title "queue bit length"
attr unit b
vector 139 WirelessC.hostR2.wlan[0].queue queueingTime:vector ETV
attr interpolationmode none
attr recordingmode vector
attr source queueingTime(packetPulled)
attr title "queueing times"
attr unit s
vector 140 WirelessC.hostR2.wlan[0].queue incomingPacketLengths:vector ETV
attr interpolationmode none
attr recordingmode vector
attr source packetLength(packetPushStarted)
attr title "incoming packet lengths"
attr unit b
vector 141 WirelessC.hostR2.wlan[0].queue incomingDataRate:vector ETV
attr interpolationmode linear
attr recordingmode vector
attr source throughput(packetPushStarted)
attr title "incoming datarate"
attr unit bps
vector 142 WirelessC.hostR2.wlan[0].queue outgoingPacketLengths:vector ETV
attr interpolationmode none
attr recordingmode vector
attr source packetLength(packetPulled)
attr title "outgoing packet lengths"
attr unit b
vector 143 WirelessC.hostR2.wlan[0].queue outgoingDataRate:vector ETV
attr interpolationmode linear
attr recordingmode vector
attr source throughput(packetPulled)
attr title "outgoing datarate"
attr unit bps
vector 144 WirelessC.hostR2.wlan[0].queue droppedPacketLengthsQueueOverflow:vector ETV
attr interpolationmode none
attr recordingmode vector
attr source packetLength(packetDropReasonIsQueueOverflow(packetDropped))
attr title "dropped packet lengths: queue overflow"
attr unit b
vector 145 WirelessC.hostR2.wlan[0].queue flowQueueingTime:vector ETV
attr interpolationmode none
attr recordingmode vector
attr source queueingTime(demuxFlow(packetPulled))
attr title "flow queueing times"
attr unit s
vector 146 WirelessC.hostR2.wlan[0].queue flowIncomingDataRate:vector ETV
attr interpolationmode linear
attr recordingmode vector
attr source throughput(flowPacketLength(demuxFlow(packetPushStarted)))
attr title "flow specific incoming data rate"
attr unit bps
vector 147 WirelessC.hostR2.wlan[0].queue flowOutgoingDataRate:vector ETV
attr interpolationmode linear
attr recordingmode vector
attr source throughput(flowPacketLength(demuxFlow(packetPulled)))
attr title "flow specific outgoing data rate"
attr unit bps
vector 148 WirelessC.hostR2.wlan[0].mac packetDropIncorrectlyReceived:vector(packetBytes) ETV
attr interpolationmode none
attr recordingmode vector(packetBytes)
attr source packetDropReasonIsIncorrectlyReceived(packetDropped)
attr title "packet drop: incorrectly received, packetBytes"
vector 149 WirelessC.hostR2.wlan[0].mac packetDropNotAddressedToUs:vector(packetBytes) ETV
attr interpolationmode none
attr recordingmode vector(packetBytes)
attr source packetDropReasonIsNotAddressedToUs(packetDropped)
attr title "packet drop: not addressed to us, packetBytes"
vector 150 WirelessC.hostR2.wlan[0].mac packetDropQueueOverflow:vector(packetBytes) ETV
attr interpolationmode none
attr recordingmode vector(packetBytes)
attr source packetDropReasonIsQueueOverflow(packetDropped)
attr title "packet drop: queue overflow, packetBytes"
vector 151 WirelessC.hostR2.wlan[0].mac packetDropRetryLimitReached:vector(packetBytes) ETV
attr interpolationmode none
attr recordingmode vector(packetBytes)
attr source packetDropReasonIsRetryLimitReached(packetDropped)
attr title "packet drop: retry limit reached, packetBytes"
vector 152 WirelessC.hostR2.wlan[0].radio.energyConsumer powerConsumption:vector ETV
attr interpolationmode sample-hold
attr recordingmode vector
attr source powerConsumptionChanged
attr title "Power consumption"
attr unit W
vector 153 WirelessC.hostR2.wlan[0].radio radioMode:vector ETV
attr interpolationmode sample-hold
attr recordingmode vector
attr source radioModeChanged
attr title "Radio mode"
vector 154 WirelessC.hostR2.wlan[0].radio receptionState:vector ETV
attr interpolationmode sample-hold
attr recordingmode vector
attr source receptionStateChanged
attr title "Radio reception state"
vector 155 WirelessC.hostR2.wlan[0].radio transmissionState:vector ETV
attr interpolationmode sample-hold
attr recordingmode vector
attr source transmissionStateChanged
attr title "Radio transmission state"
vector 156 WirelessC.hostR2.wlan[0].radio packetDropped:vector(packetBytes) ETV
attr interpolationmode none
attr recordingmode vector(packetBytes)
attr title "packets dropped, packetBytes"
vector 157 WirelessC.hostR2.wlan[0] packetDropInterfaceDown:vector(packetBytes) ETV
attr interpolationmode none
attr recordingmode vector(packetBytes)
attr source packetDropReasonIsInterfaceDown(packetDropped)
attr title "packet drops: interface down, packetBytes"
vector 158 WirelessC.hostR2.wlan[0] packetDropNoCarrier:vector(packetBytes) ETV
attr interpolationmode none
attr recordingmode vector(packetBytes)
attr source packetDropReasonIsNoCarrier(packetDropped)
attr title "packet drops: no carrier, packetBytes"
vector 159 WirelessC.hostR2.ipv4.ip packetDropAddressResolutionFailed:vector(packetBytes) ETV
attr interpolationmode none
attr recordingmode vector(packetBytes)
attr source packetDropReasonIsAddressResolutionFailed(packetDropped)
attr title "packet drop: address resolution failed, packetBytes"
vector 160 WirelessC.hostR2.ipv4.ip packetDropHopLimitReached:vector(packetBytes) ETV
attr interpolationmode none
attr recordingmode vector(packetBytes)
attr source packetDropReasonIsHopLimitReached(packetDropped)
attr title "packet drop: hop limit reached, packetBytes"
vector 161 WirelessC.hostR2.ipv4.ip packetDropForwardingDisabled:vector(packetBytes) ETV
attr interpolationmode none
attr recordingmode vector(packetBytes)
attr source packetDropReasonIsForwardingDisabled(packetDropped)
attr title "packet drop: forwarding disabled, packetBytes"
vector 162 WirelessC.hostR2.ipv4.ip packetDropNoInterfaceFound:vector(packetBytes) ETV
attr interpolationmode none
attr recordingmode vector(packetBytes)
attr source packetDropReasonIsNoInterfaceFound(packetDropped)
attr title "packet drop: no interface found, packetBytes"
vector 163 WirelessC.hostR2.ipv4.ip packetDropNoRouteFound:vector(packetBytes) ETV
attr interpolationmode none
attr recordingmode vector(packetBytes)
attr source packetDropReasonIsNoRouteFound(packetDropped)
attr title "packet drop: no route found, packetBytes"
vector 164 WirelessC.hostR2.ipv4.ip packetDropUndefined:vector(packetBytes) ETV
attr interpolationmode none
attr recordingmode vector(packetBytes)
attr source packetDropReasonIsUndefined(packetDropped)
attr title "packet drop: undefined, packetBytes"
vector 165 WirelessC.hostR2.udp packetSent:vector(packetBytes) ETV
attr interpolationmode none
attr recordingmode vector(packetBytes)
attr source packetSent
attr title "packets sent, packetBytes"
vector 166 WirelessC.hostR2.udp packetReceived:vector(packetBytes) ETV
attr interpolationmode none
attr recordingmode vector(packetBytes)
attr source packetReceived
attr title "packets received, packetBytes"
vector 167 WirelessC.hostR2.udp passedUpPk:vector(count) ETV
attr interpolationmode none
attr recordingmode vector(count)
attr source packetSentToUpper
attr title "packets passed up, count"
vector 168 WirelessC.hostR2.udp droppedPkWrongPort:vector(count) ETV
attr interpolationmode none
attr recordingmode vector(count)
attr source packetDropReasonIsNoPortFound(packetDropped)
attr title "packets dropped (wrong port), count"
vector 169 WirelessC.hostR2.udp droppedPkBadChecksum:vector(count) ETV
attr interpolationmode none
attr recordingmode vector(count)
attr source packetDropReasonIsIncorrectlyReceived(packetDropped)
attr title "packets dropped (checksum error), count"
vector 170 WirelessC.hostR3.energyStorage powerConsumption:vector ETV
attr interpolationmode sample-hold
attr recordingmode vector
attr source powerConsumptionChanged
attr title "Power consumption"
attr unit W
vector 171 WirelessC.hostR3.energyStorage powerGeneration:vector ETV
attr interpolationmode sample-hold
attr recordingmode vector
attr source powerGenerationChanged
attr title "Power generation"
attr unit W
vector 172 WirelessC.hostR3.energyStorage residualEnergyCapacity:vector ETV
attr interpolationmode linear
attr recordingmode vector
attr source residualEnergyCapacityChanged
attr title "Residual energy capacity"
attr unit J
vector 173 WirelessC.hostR3.lo[0].lo rcvdPkFromHl:vector(packetBytes) ETV
attr interpolationmode none
attr recordingmode vector(packetBytes)
attr source packetReceivedFromUpper
attr title "packets received from higher layer, packetBytes"
vector 174 WirelessC.hostR3.lo[0].lo passedUpPk:vector(packetBytes) ETV
attr interpolationmode none
attr recordingmode vector(packetBytes)
attr source packetSentToUpper
attr title "packets passed to higher layer, packetBytes"
vector 175 WirelessC.hostR3.lo[0] packetDropInterfaceDown:vector(packetBytes) ETV
attr interpolationmode none
attr recordingmode vector(packetBytes)
attr source packetDropReasonIsInterfaceDown(packetDropped)
attr title "packet drops: interface down, packetBytes"
vector 176 WirelessC.hostR3.lo[0] packetDropNoCarrier:vector(packetBytes) ETV
attr interpolationmode none
attr recordingmode vector(packetBytes)
attr source packetDropReasonIsNoCarrier(packetDropped)
attr title "packet drops: no carrier, packetBytes"
vector 177 WirelessC.hostR3.wlan[0].queue queueLength:vector ETV
attr autoWarmupFilter false
attr interpolationmode sample-hold
attr recordingmode vector
attr source "warmup(atomic(constant0(packetPushEnded) + count(packetPushStarted) - count(packetPulled) - count(packetRemoved) - count(packetDropped)))"
attr title "queue length"
attr unit pk
vector 178 WirelessC.hostR3.wlan[0].queue queueBitLength:vector ETV
attr autoWarmupFilter false
attr interpolationmode sample-hold
attr recordingmode vector
attr source "warmup(atomic(constant0(packetPushEnded) + sum(packetLength(packetPushStarted)) - sum(packetLength(packetPulled)) - sum(packetLength(packetRemoved)) - sum(packetLength(packetDropped))))"
attr title "queue bit length"
attr unit b
vector 179 WirelessC.hostR3.wlan[0].queue queueingTime:vector ETV
attr interpolationmode none
attr recordingmode vector
attr source queueingTime(packetPulled)
attr title "queueing times"
attr unit s
vector 180 WirelessC.hostR3.wlan[0].queue incomingPacketLengths:vector ETV
attr interpolationmode none
attr recordingmode vector
attr source packetLength(packetPushStarted)
attr title "incoming packet lengths"
attr unit b
vector 181 WirelessC.hostR3.wlan[0].queue incomingDataRate:vector ETV
attr interpolationmode linear
attr recordingmode vector
attr source throughput(packetPushStarted)
attr title "incoming datarate"
attr unit bps
vector 182 WirelessC.hostR3.wlan[0].queue outgoingPacketLengths:vector ETV
attr interpolationmode none
attr recordingmode vector
attr source packetLength(packetPulled)
attr title "outgoing packet lengths"
attr unit b
vector 183 WirelessC.hostR3.wlan[0].queue outgoingDataRate:vector ETV
attr interpolationmode linear
attr recordingmode vector
attr source throughput(packetPulled)
attr title "outgoing datarate"
attr unit bps
vector 184 WirelessC.hostR3.wlan[0].queue droppedPacketLengthsQueueOverflow:vector ETV
attr interpolationmode none
attr recordingmode vector
attr source packetLength(packetDropReasonIsQueueOverflow(packetDropped))
attr title "dropped packet lengths: queue overflow"
attr unit b
vector 185 WirelessC.hostR3.wlan[0].queue flowQueueingTime:vector ETV
attr interpolationmode none
attr recordingmode vector
attr source queueingTime(demuxFlow(packetPulled))
attr title "flow queueing times"
attr unit s
vector 186 WirelessC.hostR3.wlan[0].queue flowIncomingDataRate:vector ETV
attr interpolationmode linear
attr recordingmode vector
attr source throughput(flowPacketLength(demuxFlow(packetPushStarted)))
attr title "flow specific incoming data rate"
attr unit bps
vector 187 WirelessC.hostR3.wlan[0].queue flowOutgoingDataRate:vector ETV
attr interpolationmode linear
attr recordingmode vector
attr source throughput(flowPacketLength(demuxFlow(packetPulled)))
attr title "flow specific outgoing data rate"
attr unit bps
vector 188 WirelessC.hostR3.wlan[0].mac packetDropIncorrectlyReceived:vector(packetBytes) ETV
attr interpolationmode none
attr recordingmode vector(packetBytes)
attr source packetDropReasonIsIncorrectlyReceived(packetDropped)
attr title "packet drop: incorrectly received, packetBytes"
vector 189 WirelessC.hostR3.wlan[0].mac packetDropNotAddressedToUs:vector(packetBytes) ETV
attr interpolationmode none
attr recordingmode vector(packetBytes)
attr source packetDropReasonIsNotAddressedToUs(packetDropped)
attr title "packet drop: not addressed to us, packetBytes"
vector 190 WirelessC.hostR3.wlan[0].mac packetDropQueueOverflow:vector(packetBytes) ETV
attr interpolationmode none
attr recordingmode vector(packetBytes)
attr source packetDropReasonIsQueueOverflow(packetDropped)
attr title "packet drop: queue overflow, packetBytes"
vector 191 WirelessC.hostR3.wlan[0].mac packetDropRetryLimitReached:vector(packetBytes) ETV
attr interpolationmode none
attr recordingmode vector(packetBytes)
attr source packetDropReasonIsRetryLimitReached(packetDropped)
attr title "packet drop: retry limit reached, packetBytes"
vector 192 WirelessC.hostR3.wlan[0].radio.energyConsumer powerConsumption:vector ETV
attr interpolationmode sample-hold
attr recordingmode vector
attr source powerConsumptionChanged
attr title "Power consumption"
attr unit W
vector 193 WirelessC.hostR3.wlan[0].radio radioMode:vector ETV
attr interpolationmode sample-hold
attr recordingmode vector
attr source radioModeChanged
attr title "Radio mode"
vector 194 WirelessC.hostR3.wlan[0].radio receptionState:vector ETV
attr interpolationmode sample-hold
attr recordingmode vector
attr source receptionStateChanged
attr title "Radio reception state"
vector 195 WirelessC.hostR3.wlan[0].radio transmissionState:vector ETV
attr interpolationmode sample-hold
attr recordingmode vector
attr source transmissionStateChanged
attr title "Radio transmission state"
vector 196 WirelessC.hostR3.wlan[0].radio packetDropped:vector(packetBytes) ETV
attr interpolationmode none
attr recordingmode vector(packetBytes)
attr title "packets dropped, packetBytes"
vector 197 WirelessC.hostR3.wlan[0] packetDropInterfaceDown:vector(packetBytes) ETV
attr interpolationmode none
attr recordingmode vector(packetBytes)
attr source packetDropReasonIsInterfaceDown(packetDropped)
attr title "packet drops: interface down, packetBytes"
vector 198 WirelessC.hostR3.wlan[0] packetDropNoCarrier:vector(packetBytes) ETV
attr interpolationmode none
attr recordingmode vector(packetBytes)
attr source packetDropReasonIsNoCarrier(packetDropped)
attr title "packet drops: no carrier, packetBytes"
vector 199 WirelessC.hostR3.ipv4.ip packetDropAddressResolutionFailed:vector(packetBytes) ETV
attr interpolationmode none
attr recordingmode vector(packetBytes)
attr source packetDropReasonIsAddressResolutionFailed(packetDropped)
attr title "packet drop: address resolution failed, packetBytes"
vector 200 WirelessC.hostR3.ipv4.ip packetDropHopLimitReached:vector(packetBytes) ETV
attr interpolationmode none
attr recordingmode vector(packetBytes)
attr source packetDropReasonIsHopLimitReached(packetDropped)
attr title "packet drop: hop limit reached, packetBytes"
vector 201 WirelessC.hostR3.ipv4.ip packetDropForwardingDisabled:vector(packetBytes) ETV
attr interpolationmode none
attr recordingmode vector(packetBytes)
attr source packetDropReasonIsForwardingDisabled(packetDropped)
attr title "packet drop: forwarding disabled, packetBytes"
vector 202 WirelessC.hostR3.ipv4.ip packetDropNoInterfaceFound:vector(packetBytes) ETV
attr interpolationmode none
attr recordingmode vector(packetBytes)
attr source packetDropReasonIsNoInterfaceFound(packetDropped)
attr title "packet drop: no interface found, packetBytes"
vector 203 WirelessC.hostR3.ipv4.ip packetDropNoRouteFound:vector(packetBytes) ETV
attr interpolationmode none
attr recordingmode vector(packetBytes)
attr source packetDropReasonIsNoRouteFound(packetDropped)
attr title "packet drop: no route found, packetBytes"
vector 204 WirelessC.hostR3.ipv4.ip packetDropUndefined:vector(packetBytes) ETV
attr interpolationmode none
attr recordingmode vector(packetBytes)
attr source packetDropReasonIsUndefined(packetDropped)
attr title "packet drop: undefined, packetBytes"
vector 205 WirelessC.hostR3.udp packetSent:vector(packetBytes) ETV
attr interpolationmode none
attr recordingmode vector(packetBytes)
attr source packetSent
attr title "packets sent, packetBytes"
vector 206 WirelessC.hostR3.udp packetReceived:vector(packetBytes) ETV
attr interpolationmode none
attr recordingmode vector(packetBytes)
attr source packetReceived
attr title "packets received, packetBytes"
vector 207 WirelessC.hostR3.udp passedUpPk:vector(count) ETV
attr interpolationmode none
attr recordingmode vector(count)
attr source packetSentToUpper
attr title "packets passed up, count"
vector 208 WirelessC.hostR3.udp droppedPkWrongPort:vector(count) ETV
attr interpolationmode none
attr recordingmode vector(count)
attr source packetDropReasonIsNoPortFound(packetDropped)
attr title "packets dropped (wrong port), count"
vector 209 WirelessC.hostR3.udp droppedPkBadChecksum:vector(count) ETV
attr interpolationmode none
attr recordingmode vector(count)
attr source packetDropReasonIsIncorrectlyReceived(packetDropped)
attr title "packets dropped (checksum error), count"
0	0	0	0
0	0	0	0
0	0	0	0
0	0	0	0
0	0	0	0.002
7	0	0	0
7	0	0	0
7	0	0	0
7	0	0	0
7	0	0	0
8	0	0	0
8	0	0	0
8	0	0	0
8	0	0	0
8	0	0	0
22	0	0	0
22	0	0	0
22	0	0	0
22	0	0	0.002
23	0	0	0
23	0	0	0
23	0	0	2
24	0	0	1
37	0	0	0
38	0	0	0
39	0	0	0
45	0	0	0
45	0	0	0
45	0	0	0
45	0	0	0
45	0	0	0.002
52	0	0	0
52	0	0	0
52	0	0	0
52	0	0	0
52	0	0	0
53	0	0	0
53	0	0	0
53	0	0	0
53	0	0	0
53	0	0	0
67	0	0	0
67	0	0	0
67	0	0	0
67	0	0	0.002
68	0	0	0
68	0	0	0
68	0	0	2
69	0	0	1
82	0	0	0
83	0	0	0
84	0	0	0
89	0	0	0
89	0	0	0
89	0	0	0
89	0	0	0
89	0	0	0.002
96	0	0	0
96	0	0	0
96	0	0	0
96	0	0	0
96	0	0	0
97	0	0	0
97	0	0	0
97	0	0	0
97	0	0	0
97	0	0	0
111	0	0	0
111	0	0	0
111	0	0	0
111	0	0	0.002
112	0	0	0
112	0	0	0
112	0	0	2
113	0	0	1
127	0	0	0
128	0	0	0
129	0	0	0
130	0	0	0
130	0	0	0
130	0	0	0
130	0	0	0
130	0	0	0.002
137	0	0	0
137	0	0	0
137	0	0	0
137	0	0	0
137	0	0	0
138	0	0	0
138	0	0	0
138	0	0	0
138	0	0	0
138	0	0	0
152	0	0	0
152	0	0	0
152	0	0	0
152	0	0	0.002
153	0	0	0
153	0	0	0
153	0	0	2
154	0	0	1
167	0	0	0
168	0	0	0
169	0	0	0
170	0	0	0
170	0	0	0
170	0	0	0
170	0	0	0
170	0	0	0.002
177	0	0	0
177	0	0	0
177	0	0	0
177	0	0	0
177	0	0	0
178	0	0	0
178	0	0	0
178	0	0	0
178	0	0	0
178	0	0	0
192	0	0	0
192	0	0	0
192	0	0	0
192	0	0	0.002
193	0	0	0
193	0	0	0
193	0	0	2
194	0	0	1
207	0	0	0
208	0	0	0
209	0	0	0
0	23	0.016728842123	0
0	23	0.016728842123	0
0	23	0.016728842123	0.002
0	24	0.016728842123	0
0	24	0.016728842123	0.1
0	29	0.017434842123	0.002
0	29	0.017434842123	0
0	29	0.017434842123	0.002
0	29	0.017434842123	0.002
0	29	0.017434842123	0.002
0	45	0.018249473835	0
0	45	0.018249473835	0.01
0	50	0.018955473835	0.002
0	79	0.019527358501	0.002
0	93	0.02021164136	0
0	93	0.02021164136	0.01
0	98	0.02042964136	0.002
0	116	0.024690266387	0.01
0	121	0.025364266387	0.002
0	134	0.025374266387	0
0	134	0.025374266387	0
0	134	0.025374266387	0.002
0	134	0.025374266387	0.002
0	135	0.025374266387	0
0	135	0.025374266387	0.1
0	140	0.025592266387	0.002
0	140	0.025592266387	0
0	140	0.025592266387	0.002
0	140	0.025592266387	0.002
0	140	0.025592266387	0.002
0	147	0.025742266387	0
0	147	0.025742266387	0
0	147	0.025742266387	0.002
0	148	0.025742266387	0
0	148	0.025742266387	0.1
0	173	0.034256266387	0.002
0	173	0.034256266387	0
0	173	0.034256266387	0.002
0	173	0.034256266387	0.002
0	173	0.034256266387	0.002
0	183	0.034267332439	0
0	183	0.034267332439	0.01
0	188	0.034485332439	0.002
0	198	0.034835332439	0
0	198	0.034835332439	0
0	198	0.034835332439	0.002
0	198	0.034835332439	0.002
0	199	0.034835332439	0
0	199	0.034835332439	0.1
0	206	0.043349332439	0.002
0	206	0.043349332439	0
0	206	0.043349332439	0.002
0	206	0.043349332439	0.002
0	206	0.043349332439	0.002
0	216	0.043360397923	0
0	216	0.043360397923	0.01
0	221	0.043578397923	0.002
0	231	0.043628397923	0
0	231	0.043628397923	0
0	231	0.043628397923	0.002
0	231	0.043628397923	0.002
0	232	0.043628397923	0
0	232	0.043628397923	0.1
0	239	0.052142397923	0.002
0	239	0.052142397923	0
0	239	0.052142397923	0.002
0	239	0.052142397923	0.002
0	239	0.052142397923	0.002
0	249	0.052153462859	0
0	249	0.052153462859	0.01
0	254	0.052371462859	0.002
0	264	0.052481462859	0
0	264	0.052481462859	0
0	264	0.052481462859	0.002
0	264	0.052481462859	0.002
0	265	0.052481462859	0
0	265	0.052481462859	0.1
0	276	0.060995462859	0.002
0	276	0.060995462859	0
0	276	0.060995462859	0.002
0	276	0.060995462859	0.002
0	276	0.060995462859	0.002
0	286	0.061006527241	0
0	286	0.061006527241	0.01
0	291	0.061224527241	0.002
0	303	0.061514527226	0.01
0	310	0.070028527226	0.002
0	326	0.070040412578	0.002
0	337	0.070438527226	0
0	337	0.070438527226	0
0	337	0.070438527226	0.002
0	338	0.070438527226	0
0	338	0.070438527226	0.1
0	349	0.078952527226	0.002
0	349	0.078952527226	0
0	349	0.078952527226	0.002
0	349	0.078952527226	0.002
0	349	0.078952527226	0.002
0	359	0.078963590489	0
0	359	0.078963590489	0.01
0	364	0.079181590489	0.002
0	376	0.079391590475	0.01
0	387	0.087905590475	0.002
0	403	0.087917476111	0.002
0	405	0.087995590475	0
0	405	0.087995590475	0
0	405	0.087995590475	0.002
0	406	0.087995590475	0
0	406	0.087995590475	0.1
0	422	0.096509590475	0.002
0	422	0.096509590475	0
0	422	0.096509590475	0.002
0	422	0.096509590475	0.002
0	422	0.096509590475	0.002
0	430	0.097059590475	0
0	430	0.097059590475	0
0	430	0.097059590475	0.002
0	431	0.097059590475	0
0	431	0.097059590475	0.1
0	441	0.105573590475	0.002
0	441	0.105573590475	0
0	441	0.105573590475	0.002
0	441	0.105573590475	0.002
0	441	0.105573590475	0.002
0	451	0.105584652079	0
0	451	0.105584652079	0.01
0	456	0.105802652079	0.002
0	468	0.105992652067	0.01
0	474	0.114506652067	0.002
0	490	0.114518538125	0.002
0	501	0.114896652067	0
0	501	0.114896652067	0
0	501	0.114896652067	0.002
0	502	0.114896652067	0
0	502	0.114896652067	0.1
0	513	0.123410652067	0.002
0	513	0.123410652067	0
0	513	0.123410652067	0.002
0	513	0.123410652067	0.002
0	513	0.123410652067	0.002
0	523	0.123421712561	0
0	523	0.123421712561	0.01
0	528	0.123639712561	0.002
0	538	0.123729712561	0
0	538	0.123729712561	0
0	538	0.123729712561	0.002
0	538	0.123729712561	0.002
0	539	0.123729712561	0
0	539	0.123729712561	0.1
0	554	0.132243712561	0.002
0	554	0.132243712561	0
0	554	0.132243712561	0.002
0	554	0.132243712561	0.002
0	554	0.132243712561	0.002
0	564	0.132254772506	0
0	564	0.132254772506	0.01
0	569	0.132472772506	0.002
0	581	0.132602772495	0.01
0	592	0.141116772495	0.002
0	608	0.141128658975	0.002
0	610	0.141226772495	0
0	610	0.141226772495	0
0	610	0.141226772495	0.002
0	611	0.141226772495	0
0	611	0.141226772495	0.1
0	627	0.149740772495	0.002
0	627	0.149740772495	0
0	627	0.149740772495	0.002
0	627	0.149740772495	0.002
0	627	0.149740772495	0.002
0	637	0.150091831341	0
0	637	0.150091831341	0.01
0	652	0.158605831341	0.002
0	668	0.158617718099	0.002
0	670	0.158735831341	0
0	670	0.158735831341	0
0	670	0.158735831341	0.002
0	671	0.158735831341	0
0	671	0.158735831341	0.1
0	686	0.167249831341	0.002
0	686	0.167249831341	0
0	686	0.167249831341	0.002
0	686	0.167249831341	0.002
0	686	0.167249831341	0.002
0	694	0.167320889107	0
0	694	0.167320889107	0.01
0	710	0.175834889107	0.002
0	726	0.175846776138	0.002
0	739	0.176335051748	0
0	739	0.176335051748	0.01
0	749	0.184849051748	0.002
0	762	0.185199051473	0.01
0	773	0.193713051473	0.002
0	789	0.193724938788	0.002
0	800	0.194343051473	0
0	800	0.194343051473	0
0	800	0.194343051473	0.002
0	801	0.194343051473	0
0	801	0.194343051473	0.1
0	814	0.202857051473	0.002
0	814	0.202857051473	0
0	814	0.202857051473	0.002
0	814	0.202857051473	0.002
0	814	0.202857051473	0.002
0	824	0.202868107031	0
0	824	0.202868107031	0.01
0	829	0.203086107031	0.002
0	839	0.203216107031	0
0	839	0.203216107031	0
0	839	0.203216107031	0.002
0	839	0.203216107031	0.002
0	840	0.203216107031	0
0	840	0.203216107031	0.1
0	859	0.211730107031	0.002
0	859	0.211730107031	0
0	859	0.211730107031	0.002
0	859	0.211730107031	0.002
0	859	0.211730107031	0.002
0	869	0.211741162038	0
0	869	0.211741162038	0.01
0	874	0.211959162038	0.002
0	886	0.212089162028	0.01
0	901	0.220603162028	0.002
0	917	0.22061504977	0.002
0	919	0.220673162028	0
0	919	0.220673162028	0
0	919	0.220673162028	0.002
0	920	0.220673162028	0
0	920	0.220673162028	0.1
0	948	0.229187162028	0.002
0	948	0.229187162028	0
0	948	0.229187162028	0.002
0	948	0.229187162028	0.002
0	948	0.229187162028	0.002
0	958	0.22993821593	0
0	958	0.22993821593	0.01
0	965	0.23845221593	0.002
0	976	0.23906221593	0
0	976	0.23906221593	0
0	976	0.23906221593	0.002
0	976	0.23906221593	0.002
0	977	0.23906221593	0
0	977	0.23906221593	0.1
0	987	0.24757621593	0.002
0	987	0.24757621593	0
0	987	0.24757621593	0.002
0	987	0.24757621593	0.002
0	987	0.24757621593	0.002
0	997	0.247587268716	0
0	997	0.247587268716	0.01
0	1002	0.247805268716	0.002
0	1013	0.248475268716	0
0	1013	0.248475268716	0
0	1013	0.248475268716	0.002
0	1013	0.248475268716	0.002
0	1014	0.248475268716	0
0	1014	0.248475268716	0.1
0	1019	0.256989268716	0.002
0	1019	0.256989268716	0
0	1019	0.256989268716	0.002
0	1019	0.256989268716	0.002
0	1019	0.256989268716	0.002
0	1029	0.257000320918	0
0	1029	0.257000320918	0.01
0	1034	0.257218320918	0.002
0	1047	0.257768320895	0.01
0	1053	0.266282320895	0.002
0	1062	0.266452320895	0
0	1062	0.266452320895	0
0	1062	0.266452320895	0.002
0	1062	0.266452320895	0.002
0	1063	0.266452320895	0
0	1063	0.266452320895	0.1
0	1071	0.274966320895	0.002
0	1071	0.274966320895	0
0	1071	0.274966320895	0.002
0	1071	0.274966320895	0.002
0	1071	0.274966320895	0.002
0	1081	0.274977371985	0
0	1081	0.274977371985	0.01
0	1086	0.275195371985	0.002
0	1096	0.275325371985	0
0	1096	0.275325371985	0
0	1096	0.275325371985	0.002
0	1096	0.275325371985	0.002
0	1097	0.275325371985	0
0	1097	0.275325371985	0.1
0	1107	0.283839371985	0.002
0	1107	0.283839371985	0
0	1107	0.283839371985	0.002
0	1107	0.283839371985	0.002
0	1107	0.283839371985	0.002
0	1117	0.283850422527	0
0	1117	0.283850422527	0.01
0	1122	0.284068422527	0.002
0	1132	0.284178422527	0
0	1132	0.284178422527	0
0	1132	0.284178422527	0.002
0	1132	0.284178422527	0.002
0	1133	0.284178422527	0
0	1133	0.284178422527	0.1
0	1140	0.292692422527	0.002
0	1140	0.292692422527	0
0	1140	0.292692422527	0.002
0	1140	0.292692422527	0.002
0	1140	0.292692422527	0.002
0	1150	0.292703472521	0
0	1150	0.292703472521	0.01
0	1155	0.292921472521	0.002
0	1165	0.293171472521	0
0	1165	0.293171472521	0
0	1165	0.293171472521	0.002
0	1165	0.293171472521	0.002
0	1166	0.293171472521	0
0	1166	0.293171472521	0.1
0	1176	0.301685472521	0.002
0	1176	0.301685472521	0
0	1176	0.301685472521	0.002
0	1176	0.301685472521	0.002
0	1176	0.301685472521	0.002
0	1186	0.301696521959	0
0	1186	0.301696521959	0.01
0	1191	0.301914521959	0.002
0	1201	0.302284521959	0
0	1201	0.302284521959	0
0	1201	0.302284521959	0.002
0	1201	0.302284521959	0.002
0	1202	0.302284521959	0
0	1202	0.302284521959	0.1
0	1209	0.310798521959	0.002
0	1209	0.310798521959	0
0	1209	0.310798521959	0.002
0	1209	0.310798521959	0.002
0	1209	0.310798521959	0.002
0	1219	0.310809570834	0
0	1219	0.310809570834	0.01
0	1224	0.311027570834	0.002
0	1234	0.311497570834	0
0	1234	0.311497570834	0
0	1234	0.311497570834	0.002
0	1234	0.311497570834	0.002
0	1235	0.311497570834	0
0	1235	0.311497570834	0.1
0	1250	0.320011570834	0.002
0	1250	0.320011570834	0
0	1250	0.320011570834	0.002
0	1250	0.320011570834	0.002
0	1250	0.320011570834	0.002
0	1260	0.32002261914	0
0	1260	0.32002261914	0.01
0	1265	0.32024061914	0.002
0	1275	0.32051061914	0
0	1275	0.32051061914	0
0	1275	0.32051061914	0.002
0	1275	0.32051061914	0.002
0	1276	0.32051061914	0
0	1276	0.32051061914	0.1
0	1287	0.32902461914	0.002
0	1287	0.32902461914	0
0	1287	0.32902461914	0.002
0	1287	0.32902461914	0.002
0	1287	0.32902461914	0.002
0	1297	0.329035666889	0
0	1297	0.329035666889	0.01
0	1302	0.329253666889	0.002
0	1312	0.329843666889	0
0	1312	0.329843666889	0
0	1312	0.329843666889	0.002
0	1312	0.329843666889	0.002
0	1313	0.329843666889	0
0	1313	0.329843666889	0.1
0	1324	0.338357666889	0.002
0	1324	0.338357666889	0
0	1324	0.338357666889	0.002
0	1324	0.338357666889	0.002
0	1324	0.338357666889	0.002
0	1334	0.338368714062	0
0	1334	0.338368714062	0.01
0	1339	0.338586714062	0.002
0	1352	0.339056714041	0.01
0	1362	0.347570714041	0.002
0	1371	0.347820714041	0
0	1371	0.347820714041	0
0	1371	0.347820714041	0.002
0	1371	0.347820714041	0.002
0	1372	0.347820714041	0
0	1372	0.347820714041	0.1
0	1380	0.356334714041	0.002
0	1380	0.356334714041	0
0	1380	0.356334714041	0.002
0	1380	0.356334714041	0.002
0	1380	0.356334714041	0.002
0	1390	0.356345760106	0
0	1390	0.356345760106	0.01
0	1395	0.356563760106	0.002
0	1405	0.356893760106	0
0	1405	0.356893760106	0
0	1405	0.356893760106	0.002
0	1405	0.356893760106	0.002
0	1406	0.356893760106	0
0	1406	0.356893760106	0.1
0	1412	0.365407760106	0.002
0	1412	0.365407760106	0
0	1412	0.365407760106	0.002
0	1412	0.365407760106	0.002
0	1412	0.365407760106	0.002
0	1422	0.365418805611	0
0	1422	0.365418805611	0.01
0	1427	0.365636805611	0.002
0	1437	0.366086805611	0
0	1437	0.366086805611	0
0	1437	0.366086805611	0.002
0	1437	0.366086805611	0.002
0	1438	0.366086805611	0
0	1438	0.366086805611	0.1
0	1445	0.374600805611	0.002
0	1445	0.374600805611	0
0	1445	0.374600805611	0.002
0	1445	0.374600805611	0.002
0	1445	0.374600805611	0.002
0	1455	0.37461185055	0
0	1455	0.37461185055	0.01
0	1460	0.37482985055	0.002
0	1470	0.37523985055	0
0	1470	0.37523985055	0
0	1470	0.37523985055	0.002
0	1470	0.37523985055	0.002
0	1471	0.37523985055	0
0	1471	0.37523985055	0.1
0	1482	0.38375385055	0.002
0	1482	0.38375385055	0
0	1482	0.38375385055	0.002
0	1482	0.38375385055	0.002
0	1482	0.38375385055	0.002
0	1492	0.383764894925	0
0	1492	0.383764894925	0.01
0	1497	0.383982894925	0.002
0	1507	0.384552894925	0
0	1507	0.384552894925	0
0	1507	0.384552894925	0.002
0	1507	0.384552894925	0.002
0	1508	0.384552894925	0
0	1508	0.384552894925	0.1
0	1515	0.393066894925	0.002
0	1515	0.393066894925	0
0	1515	0.393066894925	0.002
0	1515	0.393066894925	0.002
0	1515	0.393066894925	0.002
0	1525	0.393077938726	0
0	1525	0.393077938726	0.01
0	1530	0.393295938726	0.002
0	1540	0.393425938726	0
0	1540	0.393425938726	0
0	1540	0.393425938726	0.002
0	1540	0.393425938726	0.002
0	1541	0.393425938726	0
0	1541	0.393425938726	0.1
0	1551	0.401939938726	0.002
0	1551	0.401939938726	0
0	1551	0.401939938726	0.002
0	1551	0.401939938726	0.002
0	1551	0.401939938726	0.002
0	1561	0.401950981981	0
0	1561	0.401950981981	0.01
0	1566	0.402168981981	0.002
0	1576	0.402658981981	0
0	1576	0.402658981981	0
0	1576	0.402658981981	0.002
0	1576	0.402658981981	0.002
0	1577	0.402658981981	0
0	1577	0.402658981981	0.1
0	1592	0.411172981981	0.002
0	1592	0.411172981981	0
0	1592	0.411172981981	0.002
0	1592	0.411172981981	0.002
0	1592	0.411172981981	0.002
0	1602	0.411184024668	0
0	1602	0.411184024668	0.01
0	1607	0.411402024668	0.002
0	1617	0.411772024668	0
0	1617	0.411772024668	0
0	1617	0.411772024668	0.002
0	1617	0.411772024668	0.002
0	1618	0.411772024668	0
0	1618	0.411772024668	0.1
0	1625	0.420286024668	0.002
0	1625	0.420286024668	0
0	1625	0.420286024668	0.002
0	1625	0.420286024668	0.002
0	1625	0.420286024668	0.002
0	1635	0.420297066794	0
0	1635	0.420297066794	0.01
0	1640	0.420515066794	0.002
0	1650	0.421005066794	0
0	1650	0.421005066794	0
0	1650	0.421005066794	0.002
0	1650	0.421005066794	0.002
0	1651	0.421005066794	0
0	1651	0.421005066794	0.1
0	1662	0.429519066794	0.002
0	1662	0.429519066794	0
0	1662	0.429519066794	0.002
0	1662	0.429519066794	0.002
0	1662	0.429519066794	0.002
0	1672	0.429530108352	0
0	1672	0.429530108352	0.01
0	1677	0.429748108352	0.002
0	1687	0.430078108352	0
0	1687	0.430078108352	0
0	1687	0.430078108352	0.002
0	1687	0.430078108352	0.002
0	1688	0.430078108352	0
0	1688	0.430078108352	0.1
0	1699	0.438592108352	0.002
0	1699	0.438592108352	0
0	1699	0.438592108352	0.002
0	1699	0.438592108352	0.002
0	1699	0.438592108352	0.002
0	1709	0.438603149353	0
0	1709	0.438603149353	0.01
0	1714	0.438821149353	0.002
0	1724	0.439431149353	0
0	1724	0.439431149353	0
0	1724	0.439431149353	0.002
0	1724	0.439431149353	0.002
0	1725	0.439431149353	0
0	1725	0.439431149353	0.1
0	1740	0.447945149353	0.002
0	1740	0.447945149353	0
0	1740	0.447945149353	0.002
0	1740	0.447945149353	0.002
0	1740	0.447945149353	0.002
2	23	0.016728842123	-3.3457684246e-05
2	29	0.017434842123	-0.000104057684246
2	45	0.018249473835	-0.00010568694767
2	50	0.018955473835	-0.00011274694767
2	79	0.019527358501	-0.000113890717002
2	93	0.02021164136	-0.00011525928272
2	98	0.02042964136	-0.00011743928272
2	116	0.024690266387	-0.000125960532774
2	121	0.025364266387	-0.000132700532774
2	134	0.025374266387	-0.000132720532774
2	140	0.025592266387	-0.000154520532774
2	147	0.025742266387	-0.000154820532774
2	173	0.034256266387	-0.001006220532774
2	183	0.034267332439	-0.001006242664878
2	188	0.034485332439	-0.001008422664878
2	198	0.034835332439	-0.001009122664878
2	206	0.043349332439	-0.001860522664878
2	216	0.043360397923	-0.001860544795846
2	221	0.043578397923	-0.001862724795846
2	231	0.043628397923	-0.001862824795846
2	239	0.052142397923	-0.002714224795846
2	249	0.052153462859	-0.002714246925718
2	254	0.052371462859	-0.002716426925718
2	264	0.052481462859	-0.002716646925718
2	276	0.060995462859	-0.003568046925718
2	286	0.061006527241	-0.003568069054482
2	291	0.061224527241	-0.003570249054482
2	303	0.061514527226	-0.003570829054452
2	310	0.070028527226	-0.003655969054452
2	326	0.070040412578	-0.003655992825156
2	337	0.070438527226	-0.003656789054452
2	349	0.078952527226	-0.004508189054452
2	359	0.078963590489	-0.004508211180978
2	364	0.079181590489	-0.004510391180978
2	376	0.079391590475	-0.00451081118095
2	387	0.087905590475	-0.00459595118095
2	403	0.087917476111	-0.004595974952222
2	405	0.087995590475	-0.00459613118095
2	422	0.096509590475	-0.00544753118095
2	430	0.097059590475	-0.00544863118095
2	441	0.105573590475	-0.00630003118095
2	451	0.105584652079	-0.006300053304158
2	456	0.105802652079	-0.006302233304158
2	468	0.105992652067	-0.006302613304134
2	474	0.114506652067	-0.006387753304134
2	490	0.114518538125	-0.00638777707625
2	501	0.114896652067	-0.006388533304134
2	513	0.123410652067	-0.007239933304134
2	523	0.123421712561	-0.007239955425122
2	528	0.123639712561	-0.007242135425122
2	538	0.123729712561	-0.007242315425122
2	554	0.132243712561	-0.008093715425122
2	564	0.132254772506	-0.008093737545012
2	569	0.132472772506	-0.008095917545012
2	581	0.132602772495	-0.00809617754499
2	592	0.141116772495	-0.00818131754499
2	608	0.141128658975	-0.00818134131795
2	610	0.141226772495	-0.00818153754499
2	627	0.149740772495	-0.00903293754499
2	637	0.150091831341	-0.009033639662682
2	652	0.158605831341	-0.009118779662682
2	668	0.158617718099	-0.009118803436198
2	670	0.158735831341	-0.009119039662682
2	686	0.167249831341	-0.009970439662682
2	694	0.167320889107	-0.009970581778214
2	710	0.175834889107	-0.010055721778214
2	726	0.175846776138	-0.010055745552276
2	739	0.176335051748	-0.010056722103496
2	749	0.184849051748	-0.010141862103496
2	762	0.185199051473	-0.010142562102946
2	773	0.193713051473	-0.010227702102946
2	789	0.193724938788	-0.010227725877576
2	800	0.194343051473	-0.010228962102946
2	814	0.202857051473	-0.011080362102946
2	824	0.202868107031	-0.011080384214062
2	829	0.203086107031	-0.011082564214062
2	839	0.203216107031	-0.011082824214062
2	859	0.211730107031	-0.011934224214062
2	869	0.211741162038	-0.011934246324076
2	874	0.211959162038	-0.011936426324076
2	886	0.212089162028	-0.011936686324056
2	901	0.220603162028	-0.012021826324056
2	917	0.22061504977	-0.01202185009954
2	919	0.220673162028	-0.012021966324056
2	948	0.229187162028	-0.012873366324056
2	958	0.22993821593	-0.01287486843186
2	965	0.23845221593	-0.01296000843186
2	976	0.23906221593	-0.01296122843186
2	987	0.24757621593	-0.01381262843186
2	997	0.247587268716	-0.013812650537432
2	1002	0.247805268716	-0.013814830537432
2	1013	0.248475268716	-0.013816170537432
2	1019	0.256989268716	-0.014667570537432
2	1029	0.257000320918	-0.014667592641836
2	1034	0.257218320918	-0.014669772641836
2	1047	0.257768320895	-0.01467087264179
2	1053	0.266282320895	-0.01475601264179
2	1062	0.266452320895	-0.01475635264179
2	1071	0.274966320895	-0.01560775264179
2	1081	0.274977371985	-0.01560777474397
2	1086	0.275195371985	-0.01560995474397
2	1096	0.275325371985	-0.01561021474397
2	1107	0.283839371985	-0.01646161474397
2	1117	0.283850422527	-0.016461636845054
2	1122	0.284068422527	-0.016463816845054
2	1132	0.284178422527	-0.016464036845054
2	1140	0.292692422527	-0.017315436845054
2	1150	0.292703472521	-0.017315458945042
2	1155	0.292921472521	-0.017317638945042
2	1165	0.293171472521	-0.017318138945042
2	1176	0.301685472521	-0.018169538945042
2	1186	0.301696521959	-0.018169561043918
2	1191	0.301914521959	-0.018171741043918
2	1201	0.302284521959	-0.018172481043918
2	1209	0.310798521959	-0.019023881043918
2	1219	0.310809570834	-0.019023903141668
2	1224	0.311027570834	-0.019026083141668
2	1234	0.311497570834	-0.019027023141668
2	1250	0.320011570834	-0.019878423141668
2	1260	0.32002261914	-0.01987844523828
2	1265	0.32024061914	-0.01988062523828
2	1275	0.32051061914	-0.01988116523828
2	1287	0.32902461914	-0.02073256523828
2	1297	0.329035666889	-0.020732587333778
2	1302	0.329253666889	-0.020734767333778
2	1312	0.329843666889	-0.020735947333778
2	1324	0.338357666889	-0.021587347333778
2	1334	0.338368714062	-0.021587369428124
2	1339	0.338586714062	-0.021589549428124
2	1352	0.339056714041	-0.021590489428082
2	1362	0.347570714041	-0.021675629428082
2	1371	0.347820714041	-0.021676129428082
2	1380	0.356334714041	-0.022527529428082
2	1390	0.356345760106	-0.022527551520212
2	1395	0.356563760106	-0.022529731520212
2	1405	0.356893760106	-0.022530391520212
2	1412	0.365407760106	-0.023381791520212
2	1422	0.365418805611	-0.023381813611222
2	1427	0.365636805611	-0.023383993611222
2	1437	0.366086805611	-0.023384893611222
2	1445	0.374600805611	-0.024236293611222
2	1455	0.37461185055	-0.0242363157011
2	1460	0.37482985055	-0.0242384957011
2	1470	0.37523985055	-0.0242393157011
2	1482	0.38375385055	-0.0250907157011
2	1492	0.383764894925	-0.02509073778985
2	1497	0.383982894925	-0.02509291778985
2	1507	0.384552894925	-0.02509405778985
2	1515	0.393066894925	-0.02594545778985
2	1525	0.393077938726	-0.025945479877452
2	1530	0.393295938726	-0.025947659877452
2	1540	0.393425938726	-0.025947919877452
2	1551	0.401939938726	-0.026799319877452
2	1561	0.401950981981	-0.026799341963962
2	1566	0.402168981981	-0.026801521963962
2	1576	0.402658981981	-0.026802501963962
2	1592	0.411172981981	-0.027653901963962
2	1602	0.411184024668	-0.027653924049336
2	1607	0.411402024668	-0.027656104049336
2	1617	0.411772024668	-0.027656844049336
2	1625	0.420286024668	-0.028508244049336
2	1635	0.420297066794	-0.028508266133588
2	1640	0.420515066794	-0.028510446133588
2	1650	0.421005066794	-0.028511426133588
2	1662	0.429519066794	-0.029362826133588
2	1672	0.429530108352	-0.029362848216704
2	1677	0.429748108352	-0.029365028216704
2	1687	0.430078108352	-0.029365688216704
2	1699	0.438592108352	-0.030217088216704
2	1709	0.438603149353	-0.030217110298706
2	1714	0.438821149353	-0.030219290298706
2	1724	0.439431149353	-0.030220510298706
2	1740	0.447945149353	-0.031071910298706
7	21	0.016558842123	0
7	126	0.025364266387	1
7	127	0.025364266387	2
7	134	0.025374266387	1
7	158	0.029823990267	2
7	164	0.030708214533	3
7	168	0.031802146846	4
7	172	0.032047253907	5
7	189	0.034485332439	4
7	222	0.043578397923	3
7	255	0.052371462859	2
7	274	0.053497105868	3
7	292	0.061224527241	2
7	348	0.072865130767	3
7	365	0.079181590489	2
7	385	0.085122313259	3
7	457	0.105802652079	2
7	512	0.119855358995	3
7	529	0.123639712561	2
7	549	0.127164348073	3
7	553	0.127391970903	4
7	570	0.132472772506	3
7	590	0.138928542172	4
7	644	0.1504431179	5
7	650	0.157616070822	6
7	704	0.169010005824	7
7	708	0.16975538931	8
7	747	0.182942338921	9
7	771	0.188263187264	10
7	810	0.199495925981	10
7	830	0.203086107031	9
7	850	0.206423817711	10
7	854	0.207715439009	10
[...]
165	110	0.024159733195	28
166	33	0.017435375563	32
166	88	0.020201108028	28
167	33	0.017435375563	1
167	88	0.020201108028	2
170	47	0.01824960757	0
170	47	0.01824960757	0.01
170	60	0.01895560757	0.002
170	76	0.019526557598	0.01
170	81	0.020200557598	0.002
170	95	0.020211775156	0.01
170	102	0.020429775156	0.002
170	118	0.024690400323	0.01
170	130	0.025364400323	0.002
170	138	0.02537535008	0.002
170	185	0.034267466674	0
170	185	0.034267466674	0.01
170	192	0.034485466674	0.002
170	202	0.034836415987	0.002
170	218	0.043360532442	0
170	218	0.043360532442	0.01
170	225	0.043578532442	0.002
170	235	0.043629481336	0.002
170	251	0.052153597652	0
170	251	0.052153597652	0.01
170	258	0.052371597652	0.002
170	268	0.052482546136	0.002
170	288	0.061006662311	0
170	288	0.061006662311	0.01
170	295	0.061224662311	0.002
170	305	0.061514662311	0.01
170	314	0.070028662311	0.002
170	323	0.070039610099	0.01
170	329	0.070257610099	0.002
170	341	0.070439610228	0.002
170	361	0.078963726118	0
170	361	0.078963726118	0.01
170	368	0.079181726118	0.002
170	378	0.079391726118	0.01
170	391	0.087905726118	0.002
170	400	0.087916673075	0.01
170	412	0.088134673075	0.002
170	425	0.096510673208	0.002
170	453	0.105584788538	0
170	453	0.105584788538	0.01
170	460	0.105802788538	0.002
170	470	0.105992788538	0.01
170	478	0.114506788538	0.002
170	487	0.11451773426	0.01
170	493	0.11473573426	0.002
170	505	0.11489773439	0.002
170	525	0.123421849575	0
170	525	0.123421849575	0.01
170	532	0.123639849575	0.002
170	542	0.123730794749	0.002
170	566	0.132254909794	0
170	566	0.132254909794	0.01
170	573	0.132472909794	0.002
170	583	0.132602909794	0.01
170	596	0.141116909794	0.002
170	605	0.141127854283	0.01
170	617	0.141345854283	0.002
170	630	0.149741854417	0.002
170	639	0.150091969184	0
170	639	0.150091969184	0.01
170	656	0.158605969184	0.002
170	665	0.158616912863	0.01
170	677	0.158834912863	0.002
170	689	0.167250912996	0.002
170	696	0.167321027485	0
170	696	0.167321027485	0.01
170	714	0.175835027485	0.002
170	723	0.175845970367	0.01
170	729	0.176063970367	0.002
170	741	0.176335190406	0.01
170	753	0.184849190406	0.002
170	764	0.185199190406	0.01
170	777	0.193713190406	0.002
170	786	0.193724132462	0.01
170	792	0.193942132462	0.002
170	804	0.194344132588	0.002
170	826	0.202868246512	0
170	826	0.202868246512	0.01
170	833	0.203086246512	0.002
170	843	0.203217188012	0.002
170	871	0.211741301795	0
170	871	0.211741301795	0.01
170	878	0.211959301795	0.002
170	888	0.212089301795	0.01
170	905	0.220603301795	0.002
170	914	0.22061424261	0.01
170	926	0.22083224261	0.002
170	951	0.229188242745	0.002
170	960	0.229938356251	0
170	960	0.229938356251	0.01
170	969	0.238452356251	0.002
170	980	0.239063296369	0.002
170	999	0.247587409583	0
170	999	0.247587409583	0.01
170	1006	0.247805409583	0.002
170	1017	0.248476349013	0.002
170	1031	0.257000462077	0
170	1031	0.257000462077	0.01
170	1038	0.257218462077	0.002
170	1049	0.257768462077	0.01
170	1057	0.266282462077	0.002
170	1066	0.266453400921	0.002
170	1083	0.2749775137	0
170	1083	0.2749775137	0.01
170	1090	0.2751955137	0.002
170	1100	0.275326451878	0.002
170	1119	0.283850564516	0
170	1119	0.283850564516	0.01
170	1126	0.284068564516	0.002
170	1136	0.284179502286	0.002
170	1152	0.292703614784	0
170	1152	0.292703614784	0.01
170	1159	0.292921614784	0.002
170	1169	0.293172552145	0.002
170	1188	0.3016966645	0
170	1188	0.3016966645	0.01
170	1195	0.3019146645	0.002
170	1205	0.302285601446	0.002
170	1221	0.310809713656	0
170	1221	0.310809713656	0.01
170	1228	0.311027713656	0.002
170	1238	0.311498650183	0.002
170	1262	0.320022762247	0
170	1262	0.320022762247	0.01
170	1269	0.320240762247	0.002
170	1279	0.320511698354	0.002
170	1299	0.329035810274	0
170	1299	0.329035810274	0.01
170	1306	0.329253810274	0.002
170	1316	0.329844745963	0.002
170	1336	0.338368857735	0
170	1336	0.338368857735	0.01
170	1343	0.338586857735	0.002
170	1354	0.339056857735	0.01
170	1366	0.347570857735	0.002
170	1375	0.347821792846	0.002
170	1392	0.356345904333	0
170	1392	0.356345904333	0.01
170	1399	0.356563904333	0.002
170	1409	0.356894838775	0.002
170	1424	0.365418950118	0
170	1424	0.365418950118	0.01
170	1431	0.365636950118	0.002
170	1441	0.366087884143	0.002
170	1457	0.37461199534	0
170	1457	0.37461199534	0.01
170	1464	0.37482999534	0.002
170	1474	0.375240928946	0.002
170	1494	0.383765039997	0
170	1494	0.383765039997	0.01
170	1501	0.383983039997	0.002
170	1511	0.384553973182	0.002
170	1527	0.393078084085	0
170	1527	0.393078084085	0.01
170	1534	0.393296084085	0.002
170	1544	0.39342701685	0.002
170	1563	0.401951127613	0
170	1563	0.401951127613	0.01
170	1570	0.402169127613	0.002
170	1580	0.402660059968	0.002
170	1604	0.411184170584	0
170	1604	0.411184170584	0.01
170	1611	0.411402170584	0.002
170	1621	0.411773102519	0.002
170	1637	0.42029721299	0
170	1637	0.42029721299	0.01
170	1644	0.42051521299	0.002
170	1654	0.421006144508	0.002
170	1674	0.429530254832	0
170	1674	0.429530254832	0.01
170	1681	0.429748254832	0.002
170	1691	0.430079185931	0.002
170	1711	0.438603296111	0
170	1711	0.438603296111	0.01
170	1718	0.438821296111	0.002
170	1728	0.439432226793	0.002
172	47	0.01824960757	-3.649921514e-05
172	60	0.01895560757	-4.355921514e-05
172	76	0.019526557598	-4.4701115196e-05
172	81	0.020200557598	-5.1441115196e-05
172	95	0.020211775156	-5.1463550312e-05
172	102	0.020429775156	-5.3643550312e-05
172	118	0.024690400323	-6.2164800646e-05
172	130	0.025364400323	-6.8904800646e-05
172	138	0.02537535008	-6.892670016e-05
172	185	0.034267466674	-8.6710933348e-05
172	192	0.034485466674	-8.8890933348e-05
172	202	0.034836415987	-8.9592831974e-05
172	218	0.043360532442	-0.000106641064884
172	225	0.043578532442	-0.000108821064884
172	235	0.043629481336	-0.000108922962672
172	251	0.052153597652	-0.000125971195304
172	258	0.052371597652	-0.000128151195304
172	268	0.052482546136	-0.000128373092272
172	288	0.061006662311	-0.000145421324622
172	295	0.061224662311	-0.000147601324622
172	305	0.061514662311	-0.000148181324622
172	314	0.070028662311	-0.000233321324622
172	323	0.070039610099	-0.000233343220198
172	329	0.070257610099	-0.000235523220198
172	341	0.070439610228	-0.000235887220456
172	361	0.078963726118	-0.000252935452236
172	368	0.079181726118	-0.000255115452236
172	378	0.079391726118	-0.000255535452236
172	391	0.087905726118	-0.000340675452236
172	400	0.087916673075	-0.00034069734615
172	412	0.088134673075	-0.00034287734615
172	425	0.096510673208	-0.000359629346416
172	453	0.105584788538	-0.000377777577076
172	460	0.105802788538	-0.000379957577076
172	470	0.105992788538	-0.000380337577076
172	478	0.114506788538	-0.000465477577076
172	487	0.11451773426	-0.00046549946852
172	493	0.11473573426	-0.00046767946852
172	505	0.11489773439	-0.00046800346878
172	525	0.123421849575	-0.00048505169915
172	532	0.123639849575	-0.00048723169915
172	542	0.123730794749	-0.000487413589498
172	566	0.132254909794	-0.000504461819588
172	573	0.132472909794	-0.000506641819588
172	583	0.132602909794	-0.000506901819588
172	596	0.141116909794	-0.000592041819588
172	605	0.141127854283	-0.000592063708566
172	617	0.141345854283	-0.000594243708566
172	630	0.149741854417	-0.000611035708834
172	639	0.150091969184	-0.000611735938368
172	656	0.158605969184	-0.000696875938368
172	665	0.158616912863	-0.000696897825726
172	677	0.158834912863	-0.000699077825726
172	689	0.167250912996	-0.000715909825992
172	696	0.167321027485	-0.00071605005497
172	714	0.175835027485	-0.00080119005497
172	723	0.175845970367	-0.000801211940734
172	729	0.176063970367	-0.000803391940734
172	741	0.176335190406	-0.000803934380812
172	753	0.184849190406	-0.000889074380812
172	764	0.185199190406	-0.000889774380812
172	777	0.193713190406	-0.000974914380812
172	786	0.193724132462	-0.000974936264924
172	792	0.193942132462	-0.000977116264924
172	804	0.194344132588	-0.000977920265176
172	826	0.202868246512	-0.000994968493024
172	833	0.203086246512	-0.000997148493024
172	843	0.203217188012	-0.000997410376024
172	871	0.211741301795	-0.00101445860359
172	878	0.211959301795	-0.00101663860359
172	888	0.212089301795	-0.00101689860359
172	905	0.220603301795	-0.00110203860359
172	914	0.22061424261	-0.00110206048522
172	926	0.22083224261	-0.00110424048522
172	951	0.229188242745	-0.00112095248549
172	960	0.229938356251	-0.001122452712502
172	969	0.238452356251	-0.001207592712502
172	980	0.239063296369	-0.001208814592738
172	999	0.247587409583	-0.001225862819166
172	1006	0.247805409583	-0.001228042819166
172	1017	0.248476349013	-0.001229384698026
172	1031	0.257000462077	-0.001246432924154
172	1038	0.257218462077	-0.001248612924154
172	1049	0.257768462077	-0.001249712924154
172	1057	0.266282462077	-0.001334852924154
172	1066	0.266453400921	-0.001335194801842
172	1083	0.2749775137	-0.0013522430274
172	1090	0.2751955137	-0.0013544230274
172	1100	0.275326451878	-0.001354684903756
172	1119	0.283850564516	-0.001371733129032
172	1126	0.284068564516	-0.001373913129032
172	1136	0.284179502286	-0.001374135004572
172	1152	0.292703614784	-0.001391183229568
172	1159	0.292921614784	-0.001393363229568
172	1169	0.293172552145	-0.00139386510429
172	1188	0.3016966645	-0.001410913329
172	1195	0.3019146645	-0.001413093329
172	1205	0.302285601446	-0.001413835202892
172	1221	0.310809713656	-0.001430883427312
172	1228	0.311027713656	-0.001433063427312
172	1238	0.311498650183	-0.001434005300366
172	1262	0.320022762247	-0.001451053524494
172	1269	0.320240762247	-0.001453233524494
172	1279	0.320511698354	-0.001453775396708
172	1299	0.329035810274	-0.001470823620548
172	1306	0.329253810274	-0.001473003620548
172	1316	0.329844745963	-0.001474185491926
172	1336	0.338368857735	-0.00149123371547
172	1343	0.338586857735	-0.00149341371547
172	1354	0.339056857735	-0.00149435371547
172	1366	0.347570857735	-0.00157949371547
172	1375	0.347821792846	-0.001579995585692
172	1392	0.356345904333	-0.001597043808666
172	1399	0.356563904333	-0.001599223808666
172	1409	0.356894838775	-0.00159988567755
172	1424	0.365418950118	-0.001616933900236
172	1431	0.365636950118	-0.001619113900236
172	1441	0.366087884143	-0.001620015768286
172	1457	0.37461199534	-0.00163706399068
172	1464	0.37482999534	-0.00163924399068
172	1474	0.375240928946	-0.001640065857892
172	1494	0.383765039997	-0.001657114079994
172	1501	0.383983039997	-0.001659294079994
172	1511	0.384553973182	-0.001660435946364
172	1527	0.393078084085	-0.00167748416817
172	1534	0.393296084085	-0.00167966416817
172	1544	0.39342701685	-0.0016799260337
172	1563	0.401951127613	-0.001696974255226
172	1570	0.402169127613	-0.001699154255226
172	1580	0.402660059968	-0.001700136119936
172	1604	0.411184170584	-0.001717184341168
172	1611	0.411402170584	-0.001719364341168
172	1621	0.411773102519	-0.001720106205038
172	1637	0.42029721299	-0.00173715442598
172	1644	0.42051521299	-0.00173933442598
172	1654	0.421006144508	-0.001740316289016
172	1674	0.429530254832	-0.001757364509664
172	1681	0.429748254832	-0.001759544509664
172	1691	0.430079185931	-0.001760206371862
172	1711	0.438603296111	-0.001777254592222
172	1718	0.438821296111	-0.001779434592222
172	1728	0.439432226793	-0.001780656453586
189	82	0.020200557598	75
189	131	0.025364400323	75
189	315	0.070028662311	1055
189	392	0.087905726118	1055
189	479	0.114506788538	1055
189	597	0.141116909794	1055
189	657	0.158605969184	1055
189	715	0.175835027485	1055
189	754	0.184849190406	1055
189	778	0.193713190406	1055
189	906	0.220603301795	1055
189	970	0.238452356251	1055
189	1058	0.266282462077	1055
189	1367	0.347570857735	1055
192	47	0.01824960757	0
192	47	0.01824960757	0.01
192	60	0.01895560757	0.002
192	76	0.019526557598	0.01
192	81	0.020200557598	0.002
192	95	0.020211775156	0.01
192	102	0.020429775156	0.002
192	118	0.024690400323	0.01
192	130	0.025364400323	0.002
192	138	0.02537535008	0.002
192	185	0.034267466674	0
192	185	0.034267466674	0.01
192	192	0.034485466674	0.002
192	202	0.034836415987	0.002
192	218	0.043360532442	0
192	218	0.043360532442	0.01
192	225	0.043578532442	0.002
192	235	0.043629481336	0.002
192	251	0.052153597652	0
192	251	0.052153597652	0.01
192	258	0.052371597652	0.002
192	268	0.052482546136	0.002
192	288	0.061006662311	0
192	288	0.061006662311	0.01
192	295	0.061224662311	0.002
192	305	0.061514662311	0.01
192	314	0.070028662311	0.002
192	323	0.070039610099	0.01
192	329	0.070257610099	0.002
192	341	0.070439610228	0.002
192	361	0.078963726118	0
192	361	0.078963726118	0.01
192	368	0.079181726118	0.002
192	378	0.079391726118	0.01
192	391	0.087905726118	0.002
192	400	0.087916673075	0.01
192	412	0.088134673075	0.002
192	425	0.096510673208	0.002
192	453	0.105584788538	0
192	453	0.105584788538	0.01
192	460	0.105802788538	0.002
192	470	0.105992788538	0.01
192	478	0.114506788538	0.002
192	487	0.11451773426	0.01
192	493	0.11473573426	0.002
192	505	0.11489773439	0.002
192	525	0.123421849575	0
192	525	0.123421849575	0.01
192	532	0.123639849575	0.002
192	542	0.123730794749	0.002
192	566	0.132254909794	0
192	566	0.132254909794	0.01
192	573	0.132472909794	0.002
192	583	0.132602909794	0.01
192	596	0.141116909794	0.002
192	605	0.141127854283	0.01
192	617	0.141345854283	0.002
192	630	0.149741854417	0.002
192	639	0.150091969184	0
192	639	0.150091969184	0.01
192	656	0.158605969184	0.002
192	665	0.158616912863	0.01
192	677	0.158834912863	0.002
192	689	0.167250912996	0.002
192	696	0.167321027485	0
192	696	0.167321027485	0.01
192	714	0.175835027485	0.002
192	723	0.175845970367	0.01
192	729	0.176063970367	0.002
192	741	0.176335190406	0.01
192	753	0.184849190406	0.002
192	764	0.185199190406	0.01
192	777	0.193713190406	0.002
192	786	0.193724132462	0.01
192	792	0.193942132462	0.002
192	804	0.194344132588	0.002
192	826	0.202868246512	0
192	826	0.202868246512	0.01
192	833	0.203086246512	0.002
192	843	0.203217188012	0.002
192	871	0.211741301795	0
192	871	0.211741301795	0.01
192	878	0.211959301795	0.002
192	888	0.212089301795	0.01
192	905	0.220603301795	0.002
192	914	0.22061424261	0.01
192	926	0.22083224261	0.002
192	951	0.229188242745	0.002
192	960	0.229938356251	0
192	960	0.229938356251	0.01
192	969	0.238452356251	0.002
192	980	0.239063296369	0.002
192	999	0.247587409583	0
192	999	0.247587409583	0.01
192	1006	0.247805409583	0.002
192	1017	0.248476349013	0.002
192	1031	0.257000462077	0
192	1031	0.257000462077	0.01
192	1038	0.257218462077	0.002
192	1049	0.257768462077	0.01
192	1057	0.266282462077	0.002
192	1066	0.266453400921	0.002
192	1083	0.2749775137	0
192	1083	0.2749775137	0.01
192	1090	0.2751955137	0.002
192	1100	0.275326451878	0.002
192	1119	0.283850564516	0
192	1119	0.283850564516	0.01
192	1126	0.284068564516	0.002
192	1136	0.284179502286	0.002
192	1152	0.292703614784	0
192	1152	0.292703614784	0.01
192	1159	0.292921614784	0.002
192	1169	0.293172552145	0.002
192	1188	0.3016966645	0
192	1188	0.3016966645	0.01
192	1195	0.3019146645	0.002
192	1205	0.302285601446	0.002
192	1221	0.310809713656	0
192	1221	0.310809713656	0.01
192	1228	0.311027713656	0.002
192	1238	0.311498650183	0.002
192	1262	0.320022762247	0
192	1262	0.320022762247	0.01
192	1269	0.320240762247	0.002
192	1279	0.320511698354	0.002
192	1299	0.329035810274	0
192	1299	0.329035810274	0.01
192	1306	0.329253810274	0.002
192	1316	0.329844745963	0.002
192	1336	0.338368857735	0
192	1336	0.338368857735	0.01
192	1343	0.338586857735	0.002
192	1354	0.339056857735	0.01
192	1366	0.347570857735	0.002
192	1375	0.347821792846	0.002
192	1392	0.356345904333	0
192	1392	0.356345904333	0.01
192	1399	0.356563904333	0.002
192	1409	0.356894838775	0.002
192	1424	0.365418950118	0
192	1424	0.365418950118	0.01
192	1431	0.365636950118	0.002
192	1441	0.366087884143	0.002
192	1457	0.37461199534	0
192	1457	0.37461199534	0.01
192	1464	0.37482999534	0.002
192	1474	0.375240928946	0.002
192	1494	0.383765039997	0
192	1494	0.383765039997	0.01
192	1501	0.383983039997	0.002
192	1511	0.384553973182	0.002
192	1527	0.393078084085	0
192	1527	0.393078084085	0.01
192	1534	0.393296084085	0.002
192	1544	0.39342701685	0.002
192	1563	0.401951127613	0
192	1563	0.401951127613	0.01
192	1570	0.402169127613	0.002
192	1580	0.402660059968	0.002
192	1604	0.411184170584	0
192	1604	0.411184170584	0.01
192	1611	0.411402170584	0.002
192	1621	0.411773102519	0.002
192	1637	0.42029721299	0
192	1637	0.42029721299	0.01
192	1644	0.42051521299	0.002
192	1654	0.421006144508	0.002
192	1674	0.429530254832	0
192	1674	0.429530254832	0.01
192	1681	0.429748254832	0.002
192	1691	0.430079185931	0.002
192	1711	0.438603296111	0
192	1711	0.438603296111	0.01
192	1718	0.438821296111	0.002
192	1728	0.439432226793	0.002
194	47	0.01824960757	3
194	60	0.01895560757	1
194	76	0.019526557598	3
194	81	0.020200557598	1
194	95	0.020211775156	3
194	102	0.020429775156	1
194	118	0.024690400323	3
194	130	0.025364400323	1
194	185	0.034267466674	3
194	192	0.034485466674	1
194	218	0.043360532442	3
194	225	0.043578532442	1
194	251	0.052153597652	3
194	258	0.052371597652	1
194	288	0.061006662311	3
194	295	0.061224662311	1
194	305	0.061514662311	3
194	314	0.070028662311	1
194	323	0.070039610099	3
194	329	0.070257610099	1
194	361	0.078963726118	3
194	368	0.079181726118	1
194	378	0.079391726118	3
194	391	0.087905726118	1
194	400	0.087916673075	3
194	412	0.088134673075	1
194	453	0.105584788538	3
194	460	0.105802788538	1
194	470	0.105992788538	3
194	478	0.114506788538	1
194	487	0.11451773426	3
194	493	0.11473573426	1
194	525	0.123421849575	3
194	532	0.123639849575	1
194	566	0.132254909794	3
194	573	0.132472909794	1
194	583	0.132602909794	3
194	596	0.141116909794	1
194	605	0.141127854283	3
194	617	0.141345854283	1
194	639	0.150091969184	3
194	656	0.158605969184	1
194	665	0.158616912863	3
194	677	0.158834912863	1
194	696	0.167321027485	3
194	714	0.175835027485	1
194	723	0.175845970367	3
194	729	0.176063970367	1
194	741	0.176335190406	3
194	753	0.184849190406	1
194	764	0.185199190406	3
194	777	0.193713190406	1
194	786	0.193724132462	3
194	792	0.193942132462	1
194	826	0.202868246512	3
194	833	0.203086246512	1
194	871	0.211741301795	3
194	878	0.211959301795	1
194	888	0.212089301795	3
194	905	0.220603301795	1
194	914	0.22061424261	3
194	926	0.22083224261	1
194	960	0.229938356251	3
194	969	0.238452356251	1
194	999	0.247587409583	3
194	1006	0.247805409583	1
194	1031	0.257000462077	3
194	1038	0.257218462077	1
194	1049	0.257768462077	3
194	1057	0.266282462077	1
194	1083	0.2749775137	3
194	1090	0.2751955137	1
194	1119	0.283850564516	3
194	1126	0.284068564516	1
194	1152	0.292703614784	3
194	1159	0.292921614784	1
194	1188	0.3016966645	3
194	1195	0.3019146645	1
194	1221	0.310809713656	3
194	1228	0.311027713656	1
194	1262	0.320022762247	3
194	1269	0.320240762247	1
194	1299	0.329035810274	3
194	1306	0.329253810274	1
194	1336	0.338368857735	3
194	1343	0.338586857735	1
194	1354	0.339056857735	3
194	1366	0.347570857735	1
194	1392	0.356345904333	3
194	1399	0.356563904333	1
194	1424	0.365418950118	3
194	1431	0.365636950118	1
194	1457	0.37461199534	3
194	1464	0.37482999534	1
194	1494	0.383765039997	3
194	1501	0.383983039997	1
194	1527	0.393078084085	3
194	1534	0.393296084085	1
194	1563	0.401951127613	3
194	1570	0.402169127613	1
194	1604	0.411184170584	3
194	1611	0.411402170584	1
194	1637	0.42029721299	3
194	1644	0.42051521299	1
194	1674	0.429530254832	3
194	1681	0.429748254832	1
194	1711	0.438603296111	3
194	1718	0.438821296111	1
206	63	0.01895560757	32
207	63	0.01895560757	1
11	1746	0.447946430342	1029148.5653474
13	1746	0.447946430342	857623.8044562
41	1746	0.1	0
41	1746	0.2	0
41	1746	0.3	0
41	1746	0.4	0
41	1746	0.447946430342	0
56	1746	0.1	3840
56	1746	0.2	0
56	1746	0.3	0
56	1746	0.4	0
56	1746	0.447946430342	0
58	1746	0.1	3840
58	1746	0.2	0
58	1746	0.3	0
58	1746	0.4	0
58	1746	0.447946430342	0
86	1746	0.3	80000
86	1746	0.4	0
86	1746	0.447946430342	0
100	1746	0.1	0
100	1746	0.2	0
100	1746	0.3	0
100	1746	0.4	0
100	1746	0.447946430342	0
102	1746	0.1	0
102	1746	0.2	0
102	1746	0.3	0
102	1746	0.4	0
102	1746	0.447946430342	0
141	1746	0.447946430342	1029148.5653474
143	1746	0.2	246720
143	1746	0.3	0
143	1746	0.4	0
143	1746	0.447946430342	0
181	1746	0.1	0
181	1746	0.2	0
181	1746	0.3	0
181	1746	0.4	0
181	1746	0.447946430342	0
183	1746	0.1	0
183	1746	0.2	0
183	1746	0.3	0
183	1746	0.4	0
183	1746	0.447946430342	0

